<NUMBER OF NODES> 548
<NUMBER OF LINKS> 1368
<NUMBER OF ZONES> 110
<FIRST THRU NODE> 111
<END OF METADATA>


~ init_node term_node capacity length free_flow_time alpha beta speed toll link_type ;
	2	359	1250.0	62296.8984375	10.11313286323052	0.15	4	70.0	0	0	;
	3	360	1250.0	22417.400390625	3.639188375101461	0.15	4	70.0	0	0	;
	3	361	1250.0	35648.3984375	5.787077668425325	0.15	4	70.0	0	0	;
	4	362	1250.0	14152.7001953125	2.2975162654728085	0.15	4	70.0	0	0	;
	4	363	1250.0	78040.8984375	12.668977019074676	0.15	4	70.0	0	0	;
	5	364	1250.0	29969.900390625	4.865243569906656	0.15	4	70.0	0	0	;
	5	365	1250.0	9380.4501953125	1.5228003563818995	0.15	4	70.0	0	0	;
	6	195	1250.0	130730.0	21.222402597402596	0.15	4	70.0	0	0	;
	6	366	1250.0	35243.80078125	5.721396230722402	0.15	4	70.0	0	0	;
	7	280	1250.0	22024.900390625	3.5754708426339286	0.15	4	70.0	0	0	;
	7	367	1250.0	6127.89013671875	0.9947873598569401	0.15	4	70.0	0	0	;
	8	368	1250.0	54059.19921875	8.775844029017858	0.15	4	70.0	0	0	;
	8	369	1250.0	57100.6015625	9.26957817573052	0.15	4	70.0	0	0	;
	9	262	1250.0	24945.30078125	4.049561815137987	0.15	4	70.0	0	0	;
	9	370	1250.0	13143.400390625	2.1336688945819806	0.15	4	70.0	0	0	;
	10	371	1250.0	113887.0	18.48814935064935	0.15	4	70.0	0	0	;
	11	372	1250.0	70551.796875	11.453213778409092	0.15	4	70.0	0	0	;
	12	373	1250.0	740.1950073242188	0.12016152716302254	0.15	4	70.0	0	0	;
	12	374	1250.0	12105.7001953125	1.9652110706676136	0.15	4	70.0	0	0	;
	13	304	1250.0	115214.0	18.70357142857143	0.15	4	70.0	0	0	;
	13	375	1250.0	11132.5	1.807224025974026	0.15	4	70.0	0	0	;
	14	279	1250.0	41216.19921875	6.6909414316152604	0.15	4	70.0	0	0	;
	15	113	1250.0	8682.0	1.4094155844155842	0.15	4	70.0	0	0	;
	15	251	1250.0	18421.80078125	2.990552074878247	0.15	4	70.0	0	0	;
	16	376	1250.0	52049.69921875	8.449626496550325	0.15	4	70.0	0	0	;
	16	377	1250.0	913.6900024414062	0.1483262990976309	0.15	4	70.0	0	0	;
	17	378	1250.0	39455.8984375	6.405178317775974	0.15	4	70.0	0	0	;
	17	379	1250.0	2648.860107421875	0.4300097576983563	0.15	4	70.0	0	0	;
	18	380	1250.0	28355.30078125	4.603133243709415	0.15	4	70.0	0	0	;
	18	381	1250.0	23623.5	3.834983766233767	0.15	4	70.0	0	0	;
	19	382	1250.0	10859.599609375	1.7629220145089286	0.15	4	70.0	0	0	;
	19	383	1250.0	8573.58984375	1.3918165330762988	0.15	4	70.0	0	0	;
	20	384	1250.0	6583.5498046875	1.0687580851765421	0.15	4	70.0	0	0	;
	20	385	1250.0	20948.0	3.4006493506493505	0.15	4	70.0	0	0	;
	21	386	1250.0	18760.69921875	3.045568054991883	0.15	4	70.0	0	0	;
	22	327	1250.0	109724.0	17.812337662337665	0.15	4	70.0	0	0	;
	22	387	1250.0	1227.699951171875	0.1993019401253044	0.15	4	70.0	0	0	;
	23	388	1250.0	155313.0	25.21314935064935	0.15	4	70.0	0	0	;
	24	389	1250.0	121440.0	19.714285714285715	0.15	4	70.0	0	0	;
	24	390	1250.0	6630.2001953125	1.0763312005377434	0.15	4	70.0	0	0	;
	25	182	1250.0	73759.203125	11.973896611201297	0.15	4	70.0	0	0	;
	25	185	1250.0	54966.0	8.923051948051949	0.15	4	70.0	0	0	;
	25	186	1250.0	48002.0	7.792532467532468	0.15	4	70.0	0	0	;
	26	303	1250.0	16287.2998046875	2.644042176085633	0.15	4	70.0	0	0	;
	26	391	1250.0	2550.010009765625	0.4139626639229911	0.15	4	70.0	0	0	;
	27	392	1250.0	105513.0	17.128733766233765	0.15	4	70.0	0	0	;
	28	275	1250.0	59317.6015625	9.629480773133118	0.15	4	70.0	0	0	;
	28	393	1250.0	14288.400390625	2.3195455179586038	0.15	4	70.0	0	0	;
	29	394	1250.0	87211.5	14.157711038961038	0.15	4	70.0	0	0	;
	29	395	1250.0	61539.3984375	9.990162084009741	0.15	4	70.0	0	0	;
	30	229	1250.0	34213.8984375	5.554204291801948	0.15	4	70.0	0	0	;
	30	396	1250.0	29364.099609375	4.766899287236201	0.15	4	70.0	0	0	;
	31	397	1250.0	119655.0	19.424512987012985	0.15	4	70.0	0	0	;
	31	398	1250.0	11560.099609375	1.8766395469764612	0.15	4	70.0	0	0	;
	32	399	1250.0	36554.8984375	5.934236759334416	0.15	4	70.0	0	0	;
	32	400	1250.0	11148.5	1.8098214285714285	0.15	4	70.0	0	0	;
	33	201	1250.0	45210.19921875	7.3393180549918835	0.15	4	70.0	0	0	;
	33	401	1250.0	6310.31982421875	1.0244025688666802	0.15	4	70.0	0	0	;
	34	402	1250.0	58943.3984375	9.568733512581169	0.15	4	70.0	0	0	;
	35	176	1250.0	68542.703125	11.127062195616881	0.15	4	70.0	0	0	;
	35	403	1250.0	24728.5	4.0143668831168835	0.15	4	70.0	0	0	;
	36	198	1250.0	66476.703125	10.791672585227273	0.15	4	70.0	0	0	;
	36	200	1250.0	68902.3984375	11.18545429180195	0.15	4	70.0	0	0	;
	37	404	1250.0	65411.30078125	10.61871765929383	0.15	4	70.0	0	0	;
	37	405	1250.0	92401.203125	15.0001953125	0.15	4	70.0	0	0	;
	38	406	1250.0	15678.599609375	2.5452272093141235	0.15	4	70.0	0	0	;
	38	407	1250.0	57578.80078125	9.34720791903409	0.15	4	70.0	0	0	;
	39	402	1250.0	40341.6015625	6.548961292613637	0.15	4	70.0	0	0	;
	39	408	1250.0	12649.099609375	2.0534252612621753	0.15	4	70.0	0	0	;
	40	224	1250.0	74324.5	12.065665584415584	0.15	4	70.0	0	0	;
	40	288	1250.0	105514.0	17.128896103896103	0.15	4	70.0	0	0	;
	41	409	1250.0	105218.0	17.080844155844154	0.15	4	70.0	0	0	;
	42	410	1250.0	15018.599609375	2.4380843521712663	0.15	4	70.0	0	0	;
	42	411	1250.0	6408.10009765625	1.0402759898792613	0.15	4	70.0	0	0	;
	43	412	1250.0	12040.0	1.9545454545454546	0.15	4	70.0	0	0	;
	43	413	1250.0	156956.0	25.479870129870132	0.15	4	70.0	0	0	;
	44	414	1250.0	21078.099609375	3.421769417106331	0.15	4	70.0	0	0	;
	44	415	1250.0	158229.0	25.686525974025976	0.15	4	70.0	0	0	;
	45	163	1250.0	94122.1015625	15.279561941964287	0.15	4	70.0	0	0	;
	45	416	1250.0	3773.5400390625	0.6125876686789772	0.15	4	70.0	0	0	;
	46	417	1250.0	5553.52978515625	0.9015470430448459	0.15	4	70.0	0	0	;
	46	418	1250.0	100169.0	16.261201298701298	0.15	4	70.0	0	0	;
	47	419	1250.0	4096.02001953125	0.6649383148589691	0.15	4	70.0	0	0	;
	48	349	1250.0	122796.0	19.934415584415586	0.15	4	70.0	0	0	;
	48	420	1250.0	26894.80078125	4.36603908786526	0.15	4	70.0	0	0	;
	49	183	1250.0	59576.0	9.67142857142857	0.15	4	70.0	0	0	;
	49	301	1250.0	50823.19921875	8.250519353693182	0.15	4	70.0	0	0	;
	49	421	1250.0	29605.5	4.806087662337663	0.15	4	70.0	0	0	;
	49	422	1250.0	2375.14990234375	0.3855762828480113	0.15	4	70.0	0	0	;
	49	534	1250.0	16438.80078125	2.6686364904626623	0.15	4	70.0	0	0	;
	50	294	1250.0	9649.4296875	1.5664658583603897	0.15	4	70.0	0	0	;
	50	423	1250.0	21063.900390625	3.419464349127435	0.15	4	70.0	0	0	;
	51	424	1250.0	1813.829956054688	0.2944529149439429	0.15	4	70.0	0	0	;
	51	425	1250.0	98250.203125	15.949708299512986	0.15	4	70.0	0	0	;
	52	426	1250.0	131814.0	21.398376623376624	0.15	4	70.0	0	0	;
	52	427	1250.0	279.6470031738281	0.04539724077497209	0.15	4	70.0	0	0	;
	53	428	1250.0	4765.330078125	0.7735925451501623	0.15	4	70.0	0	0	;
	54	429	1250.0	7380.169921875	1.1980795327719154	0.15	4	70.0	0	0	;
	54	430	1250.0	138464.0	22.477922077922077	0.15	4	70.0	0	0	;
	55	431	1250.0	1506.739990234375	0.24460064776532062	0.15	4	70.0	0	0	;
	55	432	1250.0	2857.77001953125	0.4639237044693587	0.15	4	70.0	0	0	;
	56	237	1250.0	52208.6015625	8.475422331574677	0.15	4	70.0	0	0	;
	56	433	1250.0	17103.19921875	2.7764933796672078	0.15	4	70.0	0	0	;
	57	322	1250.0	147004.0	23.864285714285714	0.15	4	70.0	0	0	;
	57	434	1250.0	46666.80078125	7.575779347605521	0.15	4	70.0	0	0	;
	58	435	1250.0	40610.30078125	6.592581295657467	0.15	4	70.0	0	0	;
	59	436	1250.0	2378.030029296875	0.38604383592481734	0.15	4	70.0	0	0	;
	59	437	1250.0	104979.0	17.042045454545455	0.15	4	70.0	0	0	;
	60	367	1250.0	112032.0	18.187012987012988	0.15	4	70.0	0	0	;
	60	438	1250.0	58235.30078125	9.453782594358765	0.15	4	70.0	0	0	;
	61	129	1250.0	151205.0	24.546266233766232	0.15	4	70.0	0	0	;
	61	439	1250.0	7290.6298828125	1.1835438121448865	0.15	4	70.0	0	0	;
	62	440	1250.0	25119.900390625	4.077905907568993	0.15	4	70.0	0	0	;
	62	441	1250.0	120482.0	19.558766233766235	0.15	4	70.0	0	0	;
	63	442	1250.0	132084.0	21.442207792207792	0.15	4	70.0	0	0	;
	63	443	1250.0	115689.0	18.78068181818182	0.15	4	70.0	0	0	;
	64	444	1250.0	14529.7001953125	2.358717564174107	0.15	4	70.0	0	0	;
	64	445	1250.0	38555.69921875	6.2590420809659095	0.15	4	70.0	0	0	;
	65	446	1250.0	2674.85009765625	0.43422891195718344	0.15	4	70.0	0	0	;
	65	447	1250.0	45564.0	7.396753246753246	0.15	4	70.0	0	0	;
	66	319	1250.0	56443.69921875	9.162938184862014	0.15	4	70.0	0	0	;
	66	448	1250.0	3025.590087890625	0.4911672220601664	0.15	4	70.0	0	0	;
	67	449	1250.0	29782.80078125	4.834870256696429	0.15	4	70.0	0	0	;
	67	530	1250.0	145600.0	23.636363636363637	0.15	4	70.0	0	0	;
	68	419	1250.0	138294.0	22.450324675324673	0.15	4	70.0	0	0	;
	68	450	1250.0	10970.400390625	1.7809091543222402	0.15	4	70.0	0	0	;
	69	451	1250.0	117536.0	19.08051948051948	0.15	4	70.0	0	0	;
	69	452	1250.0	39418.69921875	6.399139483563312	0.15	4	70.0	0	0	;
	70	453	1250.0	13306.7001953125	2.1601786031351464	0.15	4	70.0	0	0	;
	70	454	1250.0	8420.6103515625	1.3669821999289773	0.15	4	70.0	0	0	;
	71	408	1250.0	61948.0	10.056493506493506	0.15	4	70.0	0	0	;
	71	455	1250.0	4731.75	0.7681412337662337	0.15	4	70.0	0	0	;
	72	456	1250.0	6558.22998046875	1.0646477241020698	0.15	4	70.0	0	0	;
	72	457	1250.0	7095.169921875	1.1518132990056817	0.15	4	70.0	0	0	;
	73	433	1250.0	90349.796875	14.66717481737013	0.15	4	70.0	0	0	;
	73	458	1250.0	2362.14990234375	0.38346589323762176	0.15	4	70.0	0	0	;
	74	240	1250.0	35116.30078125	5.70069817877435	0.15	4	70.0	0	0	;
	74	459	1250.0	23138.099609375	3.7561850015219154	0.15	4	70.0	0	0	;
	75	460	1250.0	26034.400390625	4.226363699776786	0.15	4	70.0	0	0	;
	75	461	1250.0	62371.8984375	10.125308187905844	0.15	4	70.0	0	0	;
	76	243	1250.0	22298.69921875	3.6199187043425325	0.15	4	70.0	0	0	;
	76	462	1250.0	114130.0	18.527597402597404	0.15	4	70.0	0	0	;
	77	285	1250.0	64820.69921875	10.52284078226461	0.15	4	70.0	0	0	;
	77	463	1250.0	28105.5	4.562581168831169	0.15	4	70.0	0	0	;
	78	464	1250.0	110487.0	17.9362012987013	0.15	4	70.0	0	0	;
	78	465	1250.0	6055.64013671875	0.983058463753044	0.15	4	70.0	0	0	;
	79	290	1250.0	1532.81005859375	0.24883280171976466	0.15	4	70.0	0	0	;
	79	466	1250.0	120818.0	19.61331168831169	0.15	4	70.0	0	0	;
	80	467	1250.0	133881.0	21.73392857142857	0.15	4	70.0	0	0	;
	80	468	1250.0	110137.0	17.87938311688312	0.15	4	70.0	0	0	;
	81	469	1250.0	109760.0	17.81818181818182	0.15	4	70.0	0	0	;
	81	470	1250.0	74166.1015625	12.039951552353896	0.15	4	70.0	0	0	;
	82	471	1250.0	59872.69921875	9.719594029017857	0.15	4	70.0	0	0	;
	83	472	1250.0	24531.0	3.982305194805195	0.15	4	70.0	0	0	;
	83	473	1250.0	1746.569946289062	0.2835340821897828	0.15	4	70.0	0	0	;
	84	281	1250.0	157236.0	25.525324675324676	0.15	4	70.0	0	0	;
	84	474	1250.0	3924.669921875	0.6371217405641234	0.15	4	70.0	0	0	;
	85	475	1250.0	32277.5	5.239853896103896	0.15	4	70.0	0	0	;
	85	476	1250.0	23695.0	3.8465909090909087	0.15	4	70.0	0	0	;
	86	477	1250.0	78939.0	12.814772727272729	0.15	4	70.0	0	0	;
	86	478	1250.0	70357.203125	11.421623883928572	0.15	4	70.0	0	0	;
	87	434	1250.0	38342.8984375	6.224496499594156	0.15	4	70.0	0	0	;
	88	479	1250.0	54569.30078125	8.858652724228895	0.15	4	70.0	0	0	;
	88	480	1250.0	123432.0	20.037662337662336	0.15	4	70.0	0	0	;
	89	481	1250.0	90081.8984375	14.623684811282468	0.15	4	70.0	0	0	;
	89	482	1250.0	48822.69921875	7.925762860186689	0.15	4	70.0	0	0	;
	90	246	1250.0	27543.80078125	4.471396230722403	0.15	4	70.0	0	0	;
	90	483	1250.0	288.4089965820312	0.046819642302277795	0.15	4	70.0	0	0	;
	91	468	1250.0	145049.0	23.546915584415586	0.15	4	70.0	0	0	;
	91	484	1250.0	5458.31005859375	0.886089295226258	0.15	4	70.0	0	0	;
	92	485	1250.0	140034.0	22.73279220779221	0.15	4	70.0	0	0	;
	92	486	1250.0	150643.0	24.45503246753247	0.15	4	70.0	0	0	;
	93	487	1250.0	103888.0	16.864935064935064	0.15	4	70.0	0	0	;
	93	488	1250.0	112242.0	18.221103896103894	0.15	4	70.0	0	0	;
	94	489	1250.0	2204.02001953125	0.35779545771611204	0.15	4	70.0	0	0	;
	94	490	1250.0	82649.203125	13.417078429383116	0.15	4	70.0	0	0	;
	95	390	1250.0	120800.0	19.61038961038961	0.15	4	70.0	0	0	;
	95	491	1250.0	8805.2802734375	1.4294286158177758	0.15	4	70.0	0	0	;
	96	492	1250.0	38990.3984375	6.329610135957792	0.15	4	70.0	0	0	;
	96	493	1250.0	16537.30078125	2.684626750202922	0.15	4	70.0	0	0	;
	97	494	1250.0	9499.51953125	1.542129794034091	0.15	4	70.0	0	0	;
	97	495	1250.0	65929.796875	10.702889103084415	0.15	4	70.0	0	0	;
	98	218	1250.0	15836.2998046875	2.5708278903713473	0.15	4	70.0	0	0	;
	98	496	1250.0	2836.530029296875	0.46047565410663555	0.15	4	70.0	0	0	;
	99	408	1250.0	91306.8984375	14.822548447646104	0.15	4	70.0	0	0	;
	99	497	1250.0	10092.2001953125	1.6383441875507305	0.15	4	70.0	0	0	;
	100	498	1250.0	325.6960144042969	0.05287272961108715	0.15	4	70.0	0	0	;
	100	499	1250.0	58938.3984375	9.56792182426948	0.15	4	70.0	0	0	;
	101	500	1250.0	4004.860107421875	0.6501396278282264	0.15	4	70.0	0	0	;
	101	501	1250.0	49615.5	8.054464285714285	0.15	4	70.0	0	0	;
	102	502	1250.0	1920.2099609375	0.31172239625608766	0.15	4	70.0	0	0	;
	102	503	1250.0	66323.203125	10.76675375405844	0.15	4	70.0	0	0	;
	103	387	1250.0	33070.69921875	5.368620003043831	0.15	4	70.0	0	0	;
	103	504	1250.0	15761.5	2.558685064935065	0.15	4	70.0	0	0	;
	104	505	1250.0	926.5029907226562	0.15040632966276887	0.15	4	70.0	0	0	;
	104	506	1250.0	4784.64990234375	0.7767288802506088	0.15	4	70.0	0	0	;
	105	507	1250.0	95322.0	15.47435064935065	0.15	4	70.0	0	0	;
	105	508	1250.0	10428.0	1.692857142857143	0.15	4	70.0	0	0	;
	106	189	1250.0	86625.796875	14.062629362824675	0.15	4	70.0	0	0	;
	106	509	1250.0	8086.31005859375	1.3127126718496347	0.15	4	70.0	0	0	;
	107	510	1250.0	11028.400390625	1.7903247387378247	0.15	4	70.0	0	0	;
	107	511	1250.0	104979.0	17.042045454545455	0.15	4	70.0	0	0	;
	108	512	1250.0	5311.35009765625	0.8622321587104302	0.15	4	70.0	0	0	;
	108	513	1250.0	5002.4599609375	0.8120876559963475	0.15	4	70.0	0	0	;
	109	514	1250.0	47302.3984375	7.678960785308441	0.15	4	70.0	0	0	;
	110	180	1250.0	42595.30078125	6.914821555397728	0.15	4	70.0	0	0	;
	110	288	1250.0	13735.900390625	2.2298539595170452	0.15	4	70.0	0	0	;
	111	483	1000.0	4591.91015625	0.948741767820248	0.15	4	55.0	0	0	;
	111	524	1000.0	2542.1201171875	0.5777545720880682	0.15	4	50.0	0	0	;
	112	1	90000.0	10.0	0.0016233766233766235	0.15	4	70.0	0	0	;
	112	113	1000.0	70942.8984375	11.516704291801947	0.15	4	70.0	0	0	;
	113	15	1000.0	8682.0	2.1924242424242424	0.15	4	45.0	0	0	;
	113	112	1000.0	70942.8984375	11.516704291801947	0.15	4	70.0	0	0	;
	113	251	1000.0	16231.7998046875	3.353677645596591	0.15	4	55.0	0	0	;
	114	115	500.0	107113.0	18.726048951048952	0.15	4	65.0	0	0	;
	114	125	500.0	36602.5	6.932291666666667	0.15	4	60.0	0	0	;
	114	126	500.0	2417.75	0.49953512396694216	0.15	4	55.0	0	0	;
	115	114	500.0	107113.0	18.726048951048952	0.15	4	65.0	0	0	;
	115	128	1000.0	82706.0	15.664015151515153	0.15	4	60.0	0	0	;
	116	118	1500.0	2174.580078125	0.38017134232954547	0.15	4	65.0	0	0	;
	117	248	750.0	1407.56005859375	0.2908181939243285	0.15	4	55.0	0	0	;
	118	116	1500.0	2174.580078125	0.38017134232954547	0.15	4	65.0	0	0	;
	118	248	3500.0	16016.7001953125	2.8001224117679198	0.15	4	65.0	0	0	;
	118	299	1000.0	83290.6015625	14.561293979458043	0.15	4	65.0	0	0	;
	119	239	1000.0	881.9310302734375	0.15418374655130024	0.15	4	65.0	0	0	;
	119	240	1000.0	2704.169921875	0.4727569793487762	0.15	4	65.0	0	0	;
	120	130	1000.0	9470.0302734375	1.537342576856737	0.15	4	70.0	0	0	;
	120	320	1000.0	49504.19921875	8.036395977069805	0.15	4	70.0	0	0	;
	120	389	500.0	63013.6015625	10.229480773133117	0.15	4	70.0	0	0	;
	121	321	500.0	41315.5	6.259924242424242	0.15	4	75.0	0	0	;
	121	389	750.0	3622.5	0.7484504132231404	0.15	4	55.0	0	0	;
	121	390	500.0	141587.0	21.452575757575758	0.15	4	75.0	0	0	;
	122	123	1000.0	82714.296875	13.427645596590908	0.15	4	70.0	0	0	;
	122	124	1000.0	28123.80078125	5.8107026407541325	0.15	4	55.0	0	0	;
	123	122	1000.0	82714.296875	13.427645596590908	0.15	4	70.0	0	0	;
	123	302	500.0	329.8290100097656	0.08329015404287012	0.15	4	45.0	0	0	;
	123	303	1500.0	9490.0595703125	2.69603965065696	0.15	4	40.0	0	0	;
	124	122	1000.0	28123.80078125	5.8107026407541325	0.15	4	55.0	0	0	;
	124	493	1000.0	3875.25	0.5871590909090909	0.15	4	75.0	0	0	;
	124	526	1000.0	94995.296875	14.393226799242425	0.15	4	75.0	0	0	;
	125	114	500.0	36602.5	6.932291666666667	0.15	4	60.0	0	0	;
	125	395	2000.0	72380.796875	10.96678740530303	0.15	4	75.0	0	0	;
	126	114	500.0	2417.75	0.49953512396694216	0.15	4	55.0	0	0	;
	127	348	1000.0	503.0090026855469	0.08793863683313757	0.15	4	65.0	0	0	;
	128	115	1000.0	82706.0	15.664015151515153	0.15	4	60.0	0	0	;
	128	139	1500.0	49845.5	8.714248251748252	0.15	4	65.0	0	0	;
	128	140	1000.0	44693.30078125	8.464640299479166	0.15	4	60.0	0	0	;
	129	61	500.0	151205.0	24.546266233766232	0.15	4	70.0	0	0	;
	129	456	1000.0	7576.97998046875	1.5654917315018078	0.15	4	55.0	0	0	;
	130	120	1000.0	9470.0302734375	1.537342576856737	0.15	4	70.0	0	0	;
	130	350	500.0	115930.0	18.819805194805195	0.15	4	70.0	0	0	;
	130	456	500.0	112020.0	18.185064935064933	0.15	4	70.0	0	0	;
	131	132	1000.0	39335.6015625	8.127190405475206	0.15	4	55.0	0	0	;
	131	134	1500.0	32047.5	7.283522727272727	0.15	4	50.0	0	0	;
	131	135	1500.0	2047.329956054688	0.42300205703609256	0.15	4	55.0	0	0	;
	132	131	1000.0	39335.6015625	8.127190405475206	0.15	4	55.0	0	0	;
	133	292	1500.0	4213.14013671875	0.8704834993220558	0.15	4	55.0	0	0	;
	134	131	1500.0	32047.5	7.283522727272727	0.15	4	50.0	0	0	;
	134	465	1000.0	39709.69921875	6.942255108173077	0.15	4	65.0	0	0	;
	135	131	1500.0	2047.329956054688	0.42300205703609256	0.15	4	55.0	0	0	;
	136	520	1000.0	482.8869934082031	0.09145586996367483	0.15	4	60.0	0	0	;
	137	144	1000.0	7898.169921875	2.9917310310132574	0.15	4	30.0	0	0	;
	138	167	500.0	18105.0	2.743181818181818	0.15	4	75.0	0	0	;
	138	264	500.0	193152.0	29.265454545454542	0.15	4	75.0	0	0	;
	138	401	500.0	65339.6015625	10.60707817573052	0.15	4	70.0	0	0	;
	139	128	1500.0	49845.5	8.714248251748252	0.15	4	65.0	0	0	;
	139	140	1500.0	26492.099609375	5.473574299457644	0.15	4	55.0	0	0	;
	139	348	1500.0	34698.69921875	6.066206157124126	0.15	4	65.0	0	0	;
	140	128	1000.0	44693.30078125	8.464640299479166	0.15	4	60.0	0	0	;
	140	139	1500.0	26492.099609375	5.473574299457644	0.15	4	55.0	0	0	;
	140	349	1500.0	29047.69921875	5.5014581853693185	0.15	4	60.0	0	0	;
	141	339	500.0	1077.280029296875	0.1632242468631629	0.15	4	75.0	0	0	;
	142	340	1000.0	45.40010070800781	0.007370146218832438	0.15	4	70.0	0	0	;
	143	260	500.0	293798.0	74.19141414141414	0.15	4	45.0	0	0	;
	143	521	1000.0	7055.39013671875	2.0043721979314633	0.15	4	40.0	0	0	;
	144	137	1000.0	7898.169921875	2.9917310310132574	0.15	4	30.0	0	0	;
	144	160	1000.0	20667.30078125	6.710162591314934	0.15	4	35.0	0	0	;
	144	521	1500.0	109195.0	19.090034965034963	0.15	4	65.0	0	0	;
	145	333	1000.0	500.9289855957031	0.16263928103756595	0.15	4	35.0	0	0	;
	146	225	500.0	21163.69921875	4.0082763671875	0.15	4	60.0	0	0	;
	146	489	500.0	154762.0	31.97561983471075	0.15	4	55.0	0	0	;
	146	496	500.0	160079.0	25.986850649350647	0.15	4	70.0	0	0	;
	147	148	1500.0	24145.69921875	3.6584392755681816	0.15	4	75.0	0	0	;
	147	331	1000.0	119979.0	18.17863636363636	0.15	4	75.0	0	0	;
	148	147	1500.0	24145.69921875	3.6584392755681816	0.15	4	75.0	0	0	;
	148	351	2500.0	116321.0	17.62439393939394	0.15	4	75.0	0	0	;
	148	429	500.0	25836.900390625	4.516940627731643	0.15	4	65.0	0	0	;
	149	289	500.0	853.843994140625	0.1492734255490603	0.15	4	65.0	0	0	;
	150	344	1000.0	541.6279907226562	0.11190660965344137	0.15	4	55.0	0	0	;
	151	430	500.0	240878.0	39.10357142857143	0.15	4	70.0	0	0	;
	151	471	1000.0	55122.80078125	8.948506620332793	0.15	4	70.0	0	0	;
	152	230	500.0	31474.30078125	6.5029547068698355	0.15	4	55.0	0	0	;
	152	430	1000.0	16710.69921875	3.4526238055268594	0.15	4	55.0	0	0	;
	152	525	750.0	58866.69921875	9.55628234070617	0.15	4	70.0	0	0	;
	153	291	500.0	131188.0	21.296753246753248	0.15	4	70.0	0	0	;
	153	315	500.0	18835.599609375	3.5673484108664772	0.15	4	60.0	0	0	;
	153	316	750.0	12914.5	2.668285123966942	0.15	4	55.0	0	0	;
	154	155	500.0	87564.8984375	15.308548677884616	0.15	4	65.0	0	0	;
	155	154	500.0	87564.8984375	15.308548677884616	0.15	4	65.0	0	0	;
	155	285	1000.0	44056.6015625	6.675242660984849	0.15	4	75.0	0	0	;
	155	328	1000.0	45153.1015625	6.841379024621212	0.15	4	75.0	0	0	;
	156	505	1000.0	116288.0	24.026446280991735	0.15	4	55.0	0	0	;
	157	158	500.0	64172.30078125	12.153844844933712	0.15	4	60.0	0	0	;
	157	375	500.0	174505.0	26.440151515151513	0.15	4	75.0	0	0	;
	157	412	500.0	51087.30078125	10.55522743414256	0.15	4	55.0	0	0	;
	158	157	500.0	64172.30078125	12.153844844933712	0.15	4	60.0	0	0	;
	158	519	500.0	10763.599609375	1.8817481834571677	0.15	4	65.0	0	0	;
	159	347	1000.0	252.8190002441406	0.04788238640987511	0.15	4	60.0	0	0	;
	160	144	1000.0	20667.30078125	6.710162591314934	0.15	4	35.0	0	0	;
	160	509	500.0	61872.5	12.78357438016529	0.15	4	55.0	0	0	;
	160	520	1000.0	101054.0	17.66678321678322	0.15	4	65.0	0	0	;
	161	189	2000.0	40862.8984375	8.442747611053719	0.15	4	55.0	0	0	;
	161	509	500.0	59223.69921875	12.236301491477272	0.15	4	55.0	0	0	;
	162	531	500.0	411.9200134277344	0.08510744079085421	0.15	4	55.0	0	0	;
	163	45	500.0	94122.1015625	23.768207465277776	0.15	4	45.0	0	0	;
	163	189	1000.0	24738.80078125	4.01603908786526	0.15	4	70.0	0	0	;
	163	193	1000.0	91686.703125	13.891924715909092	0.15	4	75.0	0	0	;
	163	531	500.0	146927.0	30.356818181818184	0.15	4	55.0	0	0	;
	164	1	90000.0	10.0	0.0016233766233766235	0.15	4	70.0	0	0	;
	164	266	1000.0	2144.43994140625	0.3249151426373106	0.15	4	75.0	0	0	;
	164	479	1000.0	129056.0	19.553939393939395	0.15	4	75.0	0	0	;
	164	480	500.0	40772.30078125	6.618879996956169	0.15	4	70.0	0	0	;
	165	167	500.0	15770.599609375	2.757097833806818	0.15	4	65.0	0	0	;
	165	480	500.0	192141.0	31.191720779220777	0.15	4	70.0	0	0	;
	165	502	500.0	178451.0	27.0380303030303	0.15	4	75.0	0	0	;
	166	1	90000.0	10.0	0.0016233766233766235	0.15	4	70.0	0	0	;
	166	502	500.0	124878.0	18.920909090909092	0.15	4	75.0	0	0	;
	167	138	500.0	18105.0	2.743181818181818	0.15	4	75.0	0	0	;
	167	165	500.0	15770.599609375	2.757097833806818	0.15	4	65.0	0	0	;
	167	210	500.0	93656.296875	14.190348011363636	0.15	4	75.0	0	0	;
	167	337	500.0	173534.0	26.293030303030303	0.15	4	75.0	0	0	;
	168	169	500.0	26659.19921875	4.0392726089015145	0.15	4	75.0	0	0	;
	168	242	1000.0	61622.8984375	10.773233992569931	0.15	4	65.0	0	0	;
	169	168	500.0	26659.19921875	4.0392726089015145	0.15	4	75.0	0	0	;
	169	244	500.0	57780.69921875	10.101520842438811	0.15	4	65.0	0	0	;
	170	347	2000.0	45307.30078125	7.920856779938811	0.15	4	65.0	0	0	;
	170	532	2000.0	26940.0	4.70979020979021	0.15	4	65.0	0	0	;
	171	125	2000.0	29966.0	5.238811188811189	0.15	4	65.0	0	0	;
	171	511	1500.0	47440.19921875	8.293741122159092	0.15	4	65.0	0	0	;
	172	320	1000.0	11200.099609375	2.3140701672262396	0.15	4	55.0	0	0	;
	172	508	1000.0	8595.7998046875	1.5027622036166957	0.15	4	65.0	0	0	;
	173	319	500.0	121871.0	23.08162878787879	0.15	4	60.0	0	0	;
	173	321	1000.0	24702.19921875	5.103760169163223	0.15	4	55.0	0	0	;
	174	175	1000.0	20155.69921875	4.164400665030992	0.15	4	55.0	0	0	;
	174	354	1500.0	83693.6015625	17.29206643853306	0.15	4	55.0	0	0	;
	175	174	1000.0	20155.69921875	4.164400665030992	0.15	4	55.0	0	0	;
	175	380	2000.0	6162.080078125	1.07728672694493	0.15	4	65.0	0	0	;
	176	35	1000.0	68542.703125	14.161715521694214	0.15	4	55.0	0	0	;
	176	300	1500.0	54391.5	9.509003496503496	0.15	4	65.0	0	0	;
	176	345	1000.0	80564.0	14.084615384615384	0.15	4	65.0	0	0	;
	176	546	2500.0	855.1179809570312	0.1494961505169635	0.15	4	65.0	0	0	;
	177	353	1500.0	172207.0	30.106118881118885	0.15	4	65.0	0	0	;
	178	1	90000.0	10.0	0.0016233766233766235	0.15	4	70.0	0	0	;
	178	434	1500.0	110769.0	17.98198051948052	0.15	4	70.0	0	0	;
	179	286	1000.0	20946.69921875	3.6620103529283217	0.15	4	65.0	0	0	;
	179	405	1000.0	26883.400390625	4.0732424834280305	0.15	4	75.0	0	0	;
	180	1	90000.0	10.0	0.0016233766233766235	0.15	4	70.0	0	0	;
	180	110	500.0	42595.30078125	8.800681979597108	0.15	4	55.0	0	0	;
	181	403	1000.0	14364.0	2.3318181818181816	0.15	4	70.0	0	0	;
	182	1	90000.0	10.0	0.0016233766233766235	0.15	4	70.0	0	0	;
	182	25	1000.0	73759.203125	16.76345525568182	0.15	4	50.0	0	0	;
	183	49	500.0	59576.0	13.54	0.15	4	50.0	0	0	;
	183	346	2500.0	776.301025390625	0.13571696248087853	0.15	4	65.0	0	0	;
	184	217	1500.0	53828.1015625	9.41050726617133	0.15	4	65.0	0	0	;
	184	528	3000.0	77345.6015625	11.719030539772728	0.15	4	75.0	0	0	;
	185	1	90000.0	10.0	0.0016233766233766235	0.15	4	70.0	0	0	;
	185	25	1000.0	54966.0	12.492272727272727	0.15	4	50.0	0	0	;
	185	214	500.0	6697.0	1.0871753246753246	0.15	4	70.0	0	0	;
	186	1	90000.0	10.0	0.0016233766233766235	0.15	4	70.0	0	0	;
	186	25	1000.0	48002.0	9.917768595041323	0.15	4	55.0	0	0	;
	186	340	500.0	114628.0	18.60844155844156	0.15	4	70.0	0	0	;
	187	339	1500.0	53686.5	8.134318181818182	0.15	4	75.0	0	0	;
	187	340	500.0	46693.8984375	7.5801783177759745	0.15	4	70.0	0	0	;
	188	260	1500.0	83707.203125	14.634126420454546	0.15	4	65.0	0	0	;
	188	478	1000.0	141853.0	24.799475524475525	0.15	4	65.0	0	0	;
	189	106	500.0	86625.796875	19.687681107954543	0.15	4	50.0	0	0	;
	189	163	1000.0	24738.80078125	4.01603908786526	0.15	4	70.0	0	0	;
	190	195	500.0	156227.0	25.361525974025973	0.15	4	70.0	0	0	;
	190	517	500.0	153.6269989013672	0.023276818015358663	0.15	4	75.0	0	0	;
	191	486	500.0	251.97900390625	0.03817863695549242	0.15	4	75.0	0	0	;
	192	521	500.0	12422.0	2.352651515151515	0.15	4	60.0	0	0	;
	193	163	1000.0	91686.703125	13.891924715909092	0.15	4	75.0	0	0	;
	193	416	500.0	55303.8984375	8.379378551136364	0.15	4	75.0	0	0	;
	193	517	500.0	124082.0	18.80030303030303	0.15	4	75.0	0	0	;
	194	1	90000.0	10.0	0.0016233766233766235	0.15	4	70.0	0	0	;
	194	263	1000.0	11977.5	3.888798701298701	0.15	4	35.0	0	0	;
	195	6	500.0	130730.0	33.012626262626256	0.15	4	45.0	0	0	;
	195	190	500.0	156227.0	25.361525974025973	0.15	4	70.0	0	0	;
	196	209	500.0	5217.2001953125	0.7904848780776514	0.15	4	75.0	0	0	;
	196	366	500.0	101183.0	15.330757575757577	0.15	4	75.0	0	0	;
	196	516	500.0	177726.0	26.928181818181823	0.15	4	75.0	0	0	;
	197	477	500.0	13644.099609375	3.4454796993371213	0.15	4	45.0	0	0	;
	198	36	1000.0	66476.703125	10.072227746212121	0.15	4	75.0	0	0	;
	198	485	500.0	20033.5	3.794223484848485	0.15	4	60.0	0	0	;
	199	200	500.0	80458.703125	12.19071259469697	0.15	4	75.0	0	0	;
	199	201	500.0	104596.0	15.847878787878786	0.15	4	75.0	0	0	;
	199	513	1000.0	65127.8984375	9.867863399621212	0.15	4	75.0	0	0	;
	199	516	2000.0	118737.0	17.990454545454547	0.15	4	75.0	0	0	;
	200	36	1000.0	68902.3984375	15.659636008522728	0.15	4	50.0	0	0	;
	200	199	500.0	80458.703125	12.19071259469697	0.15	4	75.0	0	0	;
	201	33	500.0	45210.19921875	6.850030184659091	0.15	4	75.0	0	0	;
	201	199	500.0	104596.0	15.847878787878786	0.15	4	75.0	0	0	;
	201	401	500.0	49539.69921875	8.042158964082793	0.15	4	70.0	0	0	;
	202	203	500.0	182312.0	29.596103896103898	0.15	4	70.0	0	0	;
	202	205	1000.0	142415.0	21.578030303030303	0.15	4	75.0	0	0	;
	202	512	1000.0	6567.4501953125	2.1322890244521107	0.15	4	35.0	0	0	;
	203	202	500.0	182312.0	29.596103896103898	0.15	4	70.0	0	0	;
	203	454	500.0	30044.19921875	4.877305067978896	0.15	4	70.0	0	0	;
	204	207	1500.0	39398.1015625	6.887779993444056	0.15	4	65.0	0	0	;
	204	453	750.0	16318.0	3.090530303030303	0.15	4	60.0	0	0	;
	204	454	1000.0	27513.19921875	6.947777580492424	0.15	4	45.0	0	0	;
	205	202	1000.0	142415.0	21.578030303030303	0.15	4	75.0	0	0	;
	205	265	1000.0	62902.19921875	10.996887975305944	0.15	4	65.0	0	0	;
	206	265	500.0	1659.93994140625	0.29019929045563814	0.15	4	65.0	0	0	;
	207	204	1500.0	39398.1015625	6.887779993444056	0.15	4	65.0	0	0	;
	208	1	90000.0	10.0	0.0016233766233766235	0.15	4	70.0	0	0	;
	208	474	1000.0	162458.0	33.565702479338846	0.15	4	55.0	0	0	;
	209	196	500.0	5217.2001953125	0.7904848780776514	0.15	4	75.0	0	0	;
	209	264	500.0	4168.02001953125	0.6315181847774621	0.15	4	75.0	0	0	;
	210	167	500.0	93656.296875	14.190348011363636	0.15	4	75.0	0	0	;
	210	341	500.0	173387.0	28.147240259740258	0.15	4	70.0	0	0	;
	210	379	500.0	80981.5	12.269924242424244	0.15	4	75.0	0	0	;
	211	341	500.0	166920.0	27.097402597402596	0.15	4	70.0	0	0	;
	211	528	500.0	3774.169921875	0.6126899223823051	0.15	4	70.0	0	0	;
	212	217	1000.0	78830.6015625	11.944030539772728	0.15	4	75.0	0	0	;
	212	336	1000.0	123835.0	18.762878787878787	0.15	4	75.0	0	0	;
	212	529	1000.0	10829.099609375	2.461159002130682	0.15	4	50.0	0	0	;
	213	215	500.0	315.5079956054688	0.05121883045543325	0.15	4	70.0	0	0	;
	214	185	500.0	6697.0	1.0871753246753246	0.15	4	70.0	0	0	;
	214	339	500.0	98128.8984375	15.930015980113637	0.15	4	70.0	0	0	;
	214	476	500.0	108718.0	17.649025974025975	0.15	4	70.0	0	0	;
	215	213	500.0	315.5079956054688	0.05121883045543325	0.15	4	70.0	0	0	;
	215	335	500.0	3902.889892578125	0.6335860215224229	0.15	4	70.0	0	0	;
	215	489	1000.0	155164.0	23.509696969696968	0.15	4	75.0	0	0	;
	216	219	500.0	75.7759017944336	0.011481197241580848	0.15	4	75.0	0	0	;
	217	184	1500.0	53828.1015625	9.41050726617133	0.15	4	65.0	0	0	;
	217	212	1000.0	78830.6015625	11.944030539772728	0.15	4	75.0	0	0	;
	217	336	1000.0	67953.3984375	10.295969460227273	0.15	4	75.0	0	0	;
	218	98	500.0	15836.2998046875	3.271962769563533	0.15	4	55.0	0	0	;
	218	219	500.0	180896.0	27.408484848484846	0.15	4	75.0	0	0	;
	218	333	500.0	12237.2001953125	1.8541212417140152	0.15	4	75.0	0	0	;
	218	364	500.0	123320.0	18.684848484848484	0.15	4	75.0	0	0	;
	219	216	500.0	75.7759017944336	0.011481197241580848	0.15	4	75.0	0	0	;
	219	218	500.0	180896.0	27.408484848484846	0.15	4	75.0	0	0	;
	219	393	500.0	138688.0	21.013333333333332	0.15	4	75.0	0	0	;
	220	1	90000.0	10.0	0.0016233766233766235	0.15	4	70.0	0	0	;
	220	425	1000.0	43383.8984375	7.042840655438312	0.15	4	70.0	0	0	;
	221	269	1000.0	125299.0	21.90541958041958	0.15	4	65.0	0	0	;
	221	305	1000.0	9677.2802734375	1.5709870573762175	0.15	4	70.0	0	0	;
	221	307	1000.0	46745.30078125	7.5885228540990255	0.15	4	70.0	0	0	;
	222	308	1000.0	50491.80078125	7.65027284564394	0.15	4	75.0	0	0	;
	222	359	1000.0	124862.0	18.918484848484848	0.15	4	75.0	0	0	;
	222	411	500.0	3126.889892578125	0.47377119584517047	0.15	4	75.0	0	0	;
	223	359	500.0	4593.31005859375	1.7398901737097539	0.15	4	30.0	0	0	;
	224	1	90000.0	10.0	0.0016233766233766235	0.15	4	70.0	0	0	;
	224	40	500.0	74324.5	14.076609848484848	0.15	4	60.0	0	0	;
	224	392	1000.0	31719.0	8.009848484848485	0.15	4	45.0	0	0	;
	225	146	500.0	21163.69921875	4.0082763671875	0.15	4	60.0	0	0	;
	225	398	500.0	14073.900390625	2.9078306592200414	0.15	4	55.0	0	0	;
	225	476	1000.0	130005.0	22.72814685314685	0.15	4	65.0	0	0	;