<NUMBER OF ZONES> 110
<NUMBER OF NODES> 548
<NUMBER OF LINKS> 1368
<END OF METADATA>

~ From To Capacity   Length (ft)  u_f (mph)  k_j (veh/mi)
  2  359  5000  62296.8984375  70  480.0 ;
  3  360  5000  22417.400390625  70  720.0 ;
  3  361  5000  35648.3984375  70  240.0 ;
  4  362  5000  14152.7001953125  70  480.0 ;
  4  363  5000  78040.8984375  70  240.0 ;
  5  364  5000  29969.900390625  70  480.0 ;
  5  365  5000  9380.4501953125  70  240.0 ;
  6  195  5000  130730.0  70  240.0 ;
  6  366  5000  35243.80078125  70  240.0 ;
  7  280  5000  22024.900390625  70  240.0 ;
  7  367  5000  6127.89013671875  70  240.0 ;
  8  368  5000  54059.19921875  70  240.0 ;
  8  369  5000  57100.6015625  70  240.0 ;
  9  262  5000  24945.30078125  70  480.0 ;
  9  370  5000  13143.400390625  70  240.0 ;
  10  371  5000  113887.0  70  240.0 ;
  11  372  5000  70551.796875  70  240.0 ;
  12  373  5000  740.1950073242188  70  240.0 ;
  12  374  5000  12105.7001953125  70  240.0 ;
  13  304  5000  115214.0  70  240.0 ;
  13  375  5000  11132.5  70  480.0 ;
  14  279  5000  41216.19921875  70  480.0 ;
  15  113  5000  8682.0  70  480.0 ;
  15  251  5000  18421.80078125  70  360.0 ;
  16  376  5000  52049.69921875  70  480.0 ;
  16  377  5000  913.6900024414062  70  240.0 ;
  17  378  5000  39455.8984375  70  240.0 ;
  17  379  5000  2648.860107421875  70  240.0 ;
  18  380  5000  28355.30078125  70  240.0 ;
  18  381  5000  23623.5  70  240.0 ;
  19  382  5000  10859.599609375  70  240.0 ;
  19  383  5000  8573.58984375  70  240.0 ;
  20  384  5000  6583.5498046875  70  480.0 ;
  20  385  5000  20948.0  70  240.0 ;
  21  386  5000  18760.69921875  70  120.0 ;
  22  327  5000  109724.0  70  240.0 ;
  22  387  5000  1227.699951171875  70  240.0 ;
  23  388  5000  155313.0  70  240.0 ;
  24  389  5000  121440.0  70  480.0 ;
  24  390  5000  6630.2001953125  70  360.0 ;
  25  182  5000  73759.203125  70  480.0 ;
  25  185  5000  54966.0  70  480.0 ;
  25  186  5000  48002.0  70  480.0 ;
  26  303  5000  16287.2998046875  70  240.0 ;
  26  391  5000  2550.010009765625  70  240.0 ;
  27  392  5000  105513.0  70  480.0 ;
  28  275  5000  59317.6015625  70  360.0 ;
  28  393  5000  14288.400390625  70  240.0 ;
  29  394  5000  87211.5  70  240.0 ;
  29  395  5000  61539.3984375  70  240.0 ;
  30  229  5000  34213.8984375  70  240.0 ;
  30  396  5000  29364.099609375  70  240.0 ;
  31  397  5000  119655.0  70  240.0 ;
  31  398  5000  11560.099609375  70  240.0 ;
  32  399  5000  36554.8984375  70  240.0 ;
  32  400  5000  11148.5  70  240.0 ;
  33  201  5000  45210.19921875  70  240.0 ;
  33  401  5000  6310.31982421875  70  240.0 ;
  34  402  5000  58943.3984375  70  240.0 ;
  35  176  5000  68542.703125  70  480.0 ;
  35  403  5000  24728.5  70  480.0 ;
  36  198  5000  66476.703125  70  480.0 ;
  36  200  5000  68902.3984375  70  480.0 ;
  37  404  5000  65411.30078125  70  480.0 ;
  37  405  5000  92401.203125  70  240.0 ;
  38  406  5000  15678.599609375  70  480.0 ;
  38  407  5000  57578.80078125  70  480.0 ;
  39  402  5000  40341.6015625  70  240.0 ;
  39  408  5000  12649.099609375  70  240.0 ;
  40  224  5000  74324.5  70  240.0 ;
  40  288  5000  105514.0  70  480.0 ;
  41  409  5000  105218.0  70  480.0 ;
  42  410  5000  15018.599609375  70  480.0 ;
  42  411  5000  6408.10009765625  70  240.0 ;
  43  412  5000  12040.0  70  240.0 ;
  43  413  5000  156956.0  70  240.0 ;
  44  414  5000  21078.099609375  70  240.0 ;
  44  415  5000  158229.0  70  240.0 ;
  45  163  5000  94122.1015625  70  240.0 ;
  45  416  5000  3773.5400390625  70  240.0 ;
  46  417  5000  5553.52978515625  70  480.0 ;
  46  418  5000  100169.0  70  240.0 ;
  47  419  5000  4096.02001953125  70  480.0 ;
  48  349  5000  122796.0  70  240.0 ;
  48  420  5000  26894.80078125  70  480.0 ;
  49  183  5000  59576.0  70  240.0 ;
  49  301  5000  50823.19921875  70  240.0 ;
  49  421  5000  29605.5  70  720.0 ;
  49  422  5000  2375.14990234375  70  480.0 ;
  49  534  5000  16438.80078125  70  240.0 ;
  50  294  5000  9649.4296875  70  240.0 ;
  50  423  5000  21063.900390625  70  480.0 ;
  51  424  5000  1813.829956054688  70  480.0 ;
  51  425  5000  98250.203125  70  240.0 ;
  52  426  5000  131814.0  70  240.0 ;
  52  427  5000  279.6470031738281  70  240.0 ;
  53  428  5000  4765.330078125  70  480.0 ;
  54  429  5000  7380.169921875  70  240.0 ;
  54  430  5000  138464.0  70  240.0 ;
  55  431  5000  1506.739990234375  70  480.0 ;
  55  432  5000  2857.77001953125  70  240.0 ;
  56  237  5000  52208.6015625  70  480.0 ;
  56  433  5000  17103.19921875  70  480.0 ;
  57  322  5000  147004.0  70  240.0 ;
  57  434  5000  46666.80078125  70  240.0 ;
  58  435  5000  40610.30078125  70  240.0 ;
  59  436  5000  2378.030029296875  70  240.0 ;
  59  437  5000  104979.0  70  240.0 ;
  60  367  5000  112032.0  70  240.0 ;
  60  438  5000  58235.30078125  70  240.0 ;
  61  129  5000  151205.0  70  240.0 ;
  61  439  5000  7290.6298828125  70  360.0 ;
  62  440  5000  25119.900390625  70  240.0 ;
  62  441  5000  120482.0  70  240.0 ;
  63  442  5000  132084.0  70  240.0 ;
  63  443  5000  115689.0  70  240.0 ;
  64  444  5000  14529.7001953125  70  240.0 ;
  64  445  5000  38555.69921875  70  240.0 ;
  65  446  5000  2674.85009765625  70  480.0 ;
  65  447  5000  45564.0  70  480.0 ;
  66  319  5000  56443.69921875  70  480.0 ;
  66  448  5000  3025.590087890625  70  240.0 ;
  67  449  5000  29782.80078125  70  240.0 ;
  67  530  5000  145600.0  70  240.0 ;
  68  419  5000  138294.0  70  480.0 ;
  68  450  5000  10970.400390625  70  240.0 ;
  69  451  5000  117536.0  70  240.0 ;
  69  452  5000  39418.69921875  70  240.0 ;
  70  453  5000  13306.7001953125  70  480.0 ;
  70  454  5000  8420.6103515625  70  240.0 ;
  71  408  5000  61948.0  70  480.0 ;
  71  455  5000  4731.75  70  480.0 ;
  72  456  5000  6558.22998046875  70  240.0 ;
  72  457  5000  7095.169921875  70  240.0 ;
  73  433  5000  90349.796875  70  480.0 ;
  73  458  5000  2362.14990234375  70  480.0 ;
  74  240  5000  35116.30078125  70  240.0 ;
  74  459  5000  23138.099609375  70  240.0 ;
  75  460  5000  26034.400390625  70  240.0 ;
  75  461  5000  62371.8984375  70  240.0 ;
  76  243  5000  22298.69921875  70  240.0 ;
  76  462  5000  114130.0  70  480.0 ;
  77  285  5000  64820.69921875  70  240.0 ;
  77  463  5000  28105.5  70  240.0 ;
  78  464  5000  110487.0  70  240.0 ;
  78  465  5000  6055.64013671875  70  240.0 ;
  79  290  5000  1532.81005859375  70  240.0 ;
  79  466  5000  120818.0  70  240.0 ;
  80  467  5000  133881.0  70  240.0 ;
  80  468  5000  110137.0  70  240.0 ;
  81  469  5000  109760.0  70  240.0 ;
  81  470  5000  74166.1015625  70  240.0 ;
  82  471  5000  59872.69921875  70  240.0 ;
  83  472  5000  24531.0  70  240.0 ;
  83  473  5000  1746.569946289062  70  240.0 ;
  84  281  5000  157236.0  70  240.0 ;
  84  474  5000  3924.669921875  70  240.0 ;
  85  475  5000  32277.5  70  240.0 ;
  85  476  5000  23695.0  70  240.0 ;
  86  477  5000  78939.0  70  240.0 ;
  86  478  5000  70357.203125  70  240.0 ;
  87  434  5000  38342.8984375  70  720.0 ;
  88  479  5000  54569.30078125  70  240.0 ;
  88  480  5000  123432.0  70  240.0 ;
  89  481  5000  90081.8984375  70  240.0 ;
  89  482  5000  48822.69921875  70  240.0 ;
  90  246  5000  27543.80078125  70  480.0 ;
  90  483  5000  288.4089965820312  70  240.0 ;
  91  468  5000  145049.0  70  240.0 ;
  91  484  5000  5458.31005859375  70  240.0 ;
  92  485  5000  140034.0  70  240.0 ;
  92  486  5000  150643.0  70  240.0 ;
  93  487  5000  103888.0  70  240.0 ;
  93  488  5000  112242.0  70  480.0 ;
  94  489  5000  2204.02001953125  70  240.0 ;
  94  490  5000  82649.203125  70  240.0 ;
  95  390  5000  120800.0  70  240.0 ;
  95  491  5000  8805.2802734375  70  240.0 ;
  96  492  5000  38990.3984375  70  480.0 ;
  96  493  5000  16537.30078125  70  480.0 ;
  97  494  5000  9499.51953125  70  240.0 ;
  97  495  5000  65929.796875  70  360.0 ;
  98  218  5000  15836.2998046875  70  240.0 ;
  98  496  5000  2836.530029296875  70  240.0 ;
  99  408  5000  91306.8984375  70  480.0 ;
  99  497  5000  10092.2001953125  70  480.0 ;
  100  498  5000  325.6960144042969  70  480.0 ;
  100  499  5000  58938.3984375  70  240.0 ;
  101  500  5000  4004.860107421875  70  240.0 ;
  101  501  5000  49615.5  70  240.0 ;
  102  502  5000  1920.2099609375  70  240.0 ;
  102  503  5000  66323.203125  70  240.0 ;
  103  387  5000  33070.69921875  70  240.0 ;
  103  504  5000  15761.5  70  240.0 ;
  104  505  5000  926.5029907226562  70  480.0 ;
  104  506  5000  4784.64990234375  70  480.0 ;
  105  507  5000  95322.0  70  240.0 ;
  105  508  5000  10428.0  70  480.0 ;
  106  189  5000  86625.796875  70  240.0 ;
  106  509  5000  8086.31005859375  70  480.0 ;
  107  510  5000  11028.400390625  70  480.0 ;
  107  511  5000  104979.0  70  240.0 ;
  108  512  5000  5311.35009765625  70  480.0 ;
  108  513  5000  5002.4599609375  70  240.0 ;
  109  514  5000  47302.3984375  70  240.0 ;
  110  180  5000  42595.30078125  70  240.0 ;
  110  288  5000  13735.900390625  70  360.0 ;
  111  483  4000  4591.91015625  55  480.0 ;
  111  524  4000  2542.1201171875  50  480.0 ;
  112  1  360000  10.0  70  40000.0 ;
  112  113  4000  70942.8984375  70  480.0 ;
  113  15  4000  8682.0  45  480.0 ;
  113  112  4000  70942.8984375  70  480.0 ;
  113  251  4000  16231.7998046875  55  480.0 ;
  114  115  2000  107113.0  65  240.0 ;
  114  125  2000  36602.5  60  240.0 ;
  114  126  2000  2417.75  55  240.0 ;
  115  114  2000  107113.0  65  240.0 ;
  115  128  4000  82706.0  60  480.0 ;
  116  118  6000  2174.580078125  65  720.0 ;
  117  248  3000  1407.56005859375  55  360.0 ;
  118  116  6000  2174.580078125  65  720.0 ;
  118  248  14000  16016.7001953125  65  1680.0 ;
  118  299  4000  83290.6015625  65  480.0 ;
  119  239  4000  881.9310302734375  65  480.0 ;
  119  240  4000  2704.169921875  65  480.0 ;
  120  130  4000  9470.0302734375  70  480.0 ;
  120  320  4000  49504.19921875  70  480.0 ;
  120  389  2000  63013.6015625  70  240.0 ;
  121  321  2000  41315.5  75  240.0 ;
  121  389  3000  3622.5  55  360.0 ;
  121  390  2000  141587.0  75  240.0 ;
  122  123  4000  82714.296875  70  480.0 ;
  122  124  4000  28123.80078125  55  480.0 ;
  123  122  4000  82714.296875  70  480.0 ;
  123  302  2000  329.8290100097656  45  240.0 ;
  123  303  6000  9490.0595703125  40  720.0 ;
  124  122  4000  28123.80078125  55  480.0 ;
  124  493  4000  3875.25  75  480.0 ;
  124  526  4000  94995.296875  75  480.0 ;
  125  114  2000  36602.5  60  240.0 ;
  125  395  8000  72380.796875  75  960.0 ;
  126  114  2000  2417.75  55  240.0 ;
  127  348  4000  503.0090026855469  65  480.0 ;
  128  115  4000  82706.0  60  480.0 ;
  128  139  6000  49845.5  65  720.0 ;
  128  140  4000  44693.30078125  60  480.0 ;
  129  61  2000  151205.0  70  240.0 ;
  129  456  4000  7576.97998046875  55  480.0 ;
  130  120  4000  9470.0302734375  70  480.0 ;
  130  350  2000  115930.0  70  240.0 ;
  130  456  2000  112020.0  70  240.0 ;
  131  132  4000  39335.6015625  55  480.0 ;
  131  134  6000  32047.5  50  720.0 ;
  131  135  6000  2047.329956054688  55  720.0 ;
  132  131  4000  39335.6015625  55  480.0 ;
  133  292  6000  4213.14013671875  55  720.0 ;
  134  131  6000  32047.5  50  720.0 ;
  134  465  4000  39709.69921875  65  480.0 ;
  135  131  6000  2047.329956054688  55  720.0 ;
  136  520  4000  482.8869934082031  60  480.0 ;
  137  144  4000  7898.169921875  30  480.0 ;
  138  167  2000  18105.0  75  240.0 ;
  138  264  2000  193152.0  75  240.0 ;
  138  401  2000  65339.6015625  70  240.0 ;
  139  128  6000  49845.5  65  720.0 ;
  139  140  6000  26492.099609375  55  720.0 ;
  139  348  6000  34698.69921875  65  720.0 ;
  140  128  4000  44693.30078125  60  480.0 ;
  140  139  6000  26492.099609375  55  720.0 ;
  140  349  6000  29047.69921875  60  720.0 ;
  141  339  2000  1077.280029296875  75  240.0 ;
  142  340  4000  45.40010070800781  70  480.0 ;
  143  260  2000  293798.0  45  240.0 ;
  143  521  4000  7055.39013671875  40  480.0 ;
  144  137  4000  7898.169921875  30  480.0 ;
  144  160  4000  20667.30078125  35  480.0 ;
  144  521  6000  109195.0  65  720.0 ;
  145  333  4000  500.9289855957031  35  480.0 ;
  146  225  2000  21163.69921875  60  240.0 ;
  146  489  2000  154762.0  55  240.0 ;
  146  496  2000  160079.0  70  240.0 ;
  147  148  6000  24145.69921875  75  720.0 ;
  147  331  4000  119979.0  75  480.0 ;
  148  147  6000  24145.69921875  75  720.0 ;
  148  351  10000  116321.0  75  1200.0 ;
  148  429  2000  25836.900390625  65  240.0 ;
  149  289  2000  853.843994140625  65  240.0 ;
  150  344  4000  541.6279907226562  55  480.0 ;
  151  430  2000  240878.0  70  240.0 ;
  151  471  4000  55122.80078125  70  480.0 ;
  152  230  2000  31474.30078125  55  240.0 ;
  152  430  4000  16710.69921875  55  480.0 ;
  152  525  3000  58866.69921875  70  360.0 ;
  153  291  2000  131188.0  70  240.0 ;
  153  315  2000  18835.599609375  60  240.0 ;
  153  316  3000  12914.5  55  360.0 ;
  154  155  2000  87564.8984375  65  240.0 ;
  155  154  2000  87564.8984375  65  240.0 ;
  155  285  4000  44056.6015625  75  480.0 ;
  155  328  4000  45153.1015625  75  480.0 ;
  156  505  4000  116288.0  55  480.0 ;
  157  158  2000  64172.30078125  60  240.0 ;
  157  375  2000  174505.0  75  240.0 ;
  157  412  2000  51087.30078125  55  240.0 ;
  158  157  2000  64172.30078125  60  240.0 ;
  158  519  2000  10763.599609375  65  240.0 ;
  159  347  4000  252.8190002441406  60  480.0 ;
  160  144  4000  20667.30078125  35  480.0 ;
  160  509  2000  61872.5  55  240.0 ;
  160  520  4000  101054.0  65  480.0 ;
  161  189  8000  40862.8984375  55  960.0 ;
  161  509  2000  59223.69921875  55  240.0 ;
  162  531  2000  411.9200134277344  55  240.0 ;
  163  45  2000  94122.1015625  45  240.0 ;
  163  189  4000  24738.80078125  70  480.0 ;
  163  193  4000  91686.703125  75  480.0 ;
  163  531  2000  146927.0  55  240.0 ;
  164  1  360000  10.0  70  40000.0 ;
  164  266  4000  2144.43994140625  75  480.0 ;
  164  479  4000  129056.0  75  480.0 ;
  164  480  2000  40772.30078125  70  240.0 ;
  165  167  2000  15770.599609375  65  240.0 ;
  165  480  2000  192141.0  70  240.0 ;
  165  502  2000  178451.0  75  240.0 ;
  166  1  360000  10.0  70  40000.0 ;
  166  502  2000  124878.0  75  240.0 ;
  167  138  2000  18105.0  75  240.0 ;
  167  165  2000  15770.599609375  65  240.0 ;
  167  210  2000  93656.296875  75  240.0 ;
  167  337  2000  173534.0  75  240.0 ;
  168  169  2000  26659.19921875  75  240.0 ;
  168  242  4000  61622.8984375  65  480.0 ;
  169  168  2000  26659.19921875  75  240.0 ;
  169  244  2000  57780.69921875  65  240.0 ;
  170  347  8000  45307.30078125  65  960.0 ;
  170  532  8000  26940.0  65  960.0 ;
  171  125  8000  29966.0  65  960.0 ;
  171  511  6000  47440.19921875  65  720.0 ;
  172  320  4000  11200.099609375  55  480.0 ;
  172  508  4000  8595.7998046875  65  480.0 ;
  173  319  2000  121871.0  60  240.0 ;
  173  321  4000  24702.19921875  55  480.0 ;
  174  175  4000  20155.69921875  55  480.0 ;
  174  354  6000  83693.6015625  55  720.0 ;
  175  174  4000  20155.69921875  55  480.0 ;
  175  380  8000  6162.080078125  65  960.0 ;
  176  35  4000  68542.703125  55  480.0 ;
  176  300  6000  54391.5  65  720.0 ;
  176  345  4000  80564.0  65  480.0 ;
  176  546  10000  855.1179809570312  65  1200.0 ;
  177  353  6000  172207.0  65  720.0 ;
  178  1  360000  10.0  70  40000.0 ;
  178  434  6000  110769.0  70  720.0 ;
  179  286  4000  20946.69921875  65  480.0 ;
  179  405  4000  26883.400390625  75  480.0 ;
  180  1  360000  10.0  70  40000.0 ;
  180  110  2000  42595.30078125  55  240.0 ;
  181  403  4000  14364.0  70  480.0 ;
  182  1  360000  10.0  70  40000.0 ;
  182  25  4000  73759.203125  50  480.0 ;
  183  49  2000  59576.0  50  240.0 ;
  183  346  10000  776.301025390625  65  1200.0 ;
  184  217  6000  53828.1015625  65  720.0 ;
  184  528  12000  77345.6015625  75  1440.0 ;
  185  1  360000  10.0  70  40000.0 ;
  185  25  4000  54966.0  50  480.0 ;
  185  214  2000  6697.0  70  240.0 ;
  186  1  360000  10.0  70  40000.0 ;
  186  25  4000  48002.0  55  480.0 ;
  186  340  2000  114628.0  70  240.0 ;
  187  339  6000  53686.5  75  720.0 ;
  187  340  2000  46693.8984375  70  240.0 ;
  188  260  6000  83707.203125  65  720.0 ;
  188  478  4000  141853.0  65  480.0 ;
  189  106  2000  86625.796875  50  240.0 ;
  189  163  4000  24738.80078125  70  480.0 ;
  190  195  2000  156227.0  70  240.0 ;
  190  517  2000  153.6269989013672  75  240.0 ;
  191  486  2000  251.97900390625  75  240.0 ;
  192  521  2000  12422.0  60  240.0 ;
  193  163  4000  91686.703125  75  480.0 ;
  193  416  2000  55303.8984375  75  240.0 ;
  193  517  2000  124082.0  75  240.0 ;
  194  1  360000  10.0  70  40000.0 ;
  194  263  4000  11977.5  35  480.0 ;
  195  6  2000  130730.0  45  240.0 ;
  195  190  2000  156227.0  70  240.0 ;
  196  209  2000  5217.2001953125  75  240.0 ;
  196  366  2000  101183.0  75  240.0 ;
  196  516  2000  177726.0  75  240.0 ;
  197  477  2000  13644.099609375  45  240.0 ;
  198  36  4000  66476.703125  75  480.0 ;
  198  485  2000  20033.5  60  240.0 ;
  199  200  2000  80458.703125  75  240.0 ;
  199  201  2000  104596.0  75  240.0 ;
  199  513  4000  65127.8984375  75  480.0 ;
  199  516  8000  118737.0  75  960.0 ;
  200  36  4000  68902.3984375  50  480.0 ;
  200  199  2000  80458.703125  75  240.0 ;
  201  33  2000  45210.19921875  75  240.0 ;
  201  199  2000  104596.0  75  240.0 ;
  201  401  2000  49539.69921875  70  240.0 ;
  202  203  2000  182312.0  70  240.0 ;
  202  205  4000  142415.0  75  480.0 ;
  202  512  4000  6567.4501953125  35  480.0 ;
  203  202  2000  182312.0  70  240.0 ;
  203  454  2000  30044.19921875  70  240.0 ;
  204  207  6000  39398.1015625  65  720.0 ;
  204  453  3000  16318.0  60  360.0 ;
  204  454  4000  27513.19921875  45  480.0 ;
  205  202  4000  142415.0  75  480.0 ;
  205  265  4000  62902.19921875  65  480.0 ;
  206  265  2000  1659.93994140625  65  240.0 ;
  207  204  6000  39398.1015625  65  720.0 ;
  208  1  360000  10.0  70  40000.0 ;
  208  474  4000  162458.0  55  480.0 ;
  209  196  2000  5217.2001953125  75  240.0 ;
  209  264  2000  4168.02001953125  75  240.0 ;
  210  167  2000  93656.296875  75  240.0 ;
  210  341  2000  173387.0  70  240.0 ;
  210  379  2000  80981.5  75  240.0 ;
  211  341  2000  166920.0  70  240.0 ;
  211  528  2000  3774.169921875  70  240.0 ;
  212  217  4000  78830.6015625  75  480.0 ;
  212  336  4000  123835.0  75  480.0 ;
  212  529  4000  10829.099609375  50  480.0 ;
  213  215  2000  315.5079956054688  70  240.0 ;
  214  185  2000  6697.0  70  240.0 ;
  214  339  2000  98128.8984375  70  240.0 ;
  214  476  2000  108718.0  70  240.0 ;
  215  213  2000  315.5079956054688  70  240.0 ;
  215  335  2000  3902.889892578125  70  240.0 ;
  215  489  4000  155164.0  75  480.0 ;
  216  219  2000  75.7759017944336  75  240.0 ;
  217  184  6000  53828.1015625  65  720.0 ;
  217  212  4000  78830.6015625  75  480.0 ;
  217  336  4000  67953.3984375  75  480.0 ;
  218  98  2000  15836.2998046875  55  240.0 ;
  218  219  2000  180896.0  75  240.0 ;
  218  333  2000  12237.2001953125  75  240.0 ;
  218  364  2000  123320.0  75  240.0 ;
  219  216  2000  75.7759017944336  75  240.0 ;
  219  218  2000  180896.0  75  240.0 ;
  219  393  2000  138688.0  75  240.0 ;
  220  1  360000  10.0  70  40000.0 ;
  220  425  4000  43383.8984375  70  480.0 ;
  221  269  4000  125299.0  65  480.0 ;
  221  305  4000  9677.2802734375  70  480.0 ;
  221  307  4000  46745.30078125  70  480.0 ;
  222  308  4000  50491.80078125  75  480.0 ;
  222  359  4000  124862.0  75  480.0 ;
  222  411  2000  3126.889892578125  75  240.0 ;
  223  359  2000  4593.31005859375  30  240.0 ;
  224  1  360000  10.0  70  40000.0 ;
  224  40  2000  74324.5  60  240.0 ;
  224  392  4000  31719.0  45  480.0 ;
  225  146  2000  21163.69921875  60  240.0 ;
  225  398  2000  14073.900390625  55  240.0 ;
  225  476  4000  130005.0  65  480.0 ;
  226  227  4000  122.8440017700195  70  480.0 ;
  226  228  4000  112122.0  70  480.0 ;
  226  344  4000  21654.19921875  70  480.0 ;
  227  226  4000  122.8440017700195  70  480.0 ;
  227  427  4000  118707.0  70  480.0 ;
  228  226  4000  112122.0  70  480.0 ;
  228  396  2000  9460.6796875  55  240.0 ;
  229  30  2000  34213.8984375  75  240.0 ;
  229  396  2000  17416.30078125  75  240.0 ;
  229  429  2000  138061.0  75  240.0 ;
  230  152  2000  31474.30078125  55  240.0 ;
  230  277  2000  29831.30078125  65  240.0 ;
  231  277  2000  326.9880065917969  65  240.0 ;
  232  525  3000  312.2619934082031  70  360.0 ;
  233  278  4000  272433.0  60  480.0 ;
  234  360  4000  39746.6015625  65  480.0 ;
  234  361  4000  1436.43994140625  45  480.0 ;
  235  327  2000  88157.703125  75  240.0 ;
  235  432  2000  13538.2001953125  55  240.0 ;
  236  248  4000  52143.5  75  480.0 ;
  236  285  4000  34701.19921875  75  480.0 ;
  236  463  2000  67528.5  65  240.0 ;
  237  56  4000  52208.6015625  75  480.0 ;
  237  310  2000  238016.0  65  240.0 ;
  237  515  2000  12175.7998046875  55  240.0 ;
  238  420  4000  3560.320068359375  50  480.0 ;
  239  119  4000  881.9310302734375  65  480.0 ;
  239  242  4000  55404.80078125  65  480.0 ;
  239  459  2000  39859.5  50  240.0 ;
  240  74  2000  35116.30078125  40  240.0 ;
  240  119  4000  2704.169921875  65  480.0 ;
  240  241  2000  123384.0  60  240.0 ;
  241  240  2000  123384.0  60  240.0 ;
  242  168  4000  61622.8984375  65  480.0 ;
  242  239  4000  55404.80078125  65  480.0 ;
  242  243  2000  113109.0  60  240.0 ;
  243  76  2000  22298.69921875  60  240.0 ;
  243  242  2000  113109.0  60  240.0 ;
  244  169  2000  57780.69921875  65  240.0 ;
  244  245  2000  103941.0  65  240.0 ;
  245  244  2000  103941.0  65  240.0 ;
  246  90  4000  27543.80078125  35  480.0 ;
  246  523  6000  481.4840087890625  45  720.0 ;
  247  326  8000  80239.203125  75  960.0 ;
  247  448  4000  238265.0  75  480.0 ;
  248  117  3000  1407.56005859375  55  360.0 ;
  248  118  14000  16016.7001953125  65  1680.0 ;
  248  236  4000  52143.5  75  480.0 ;
  249  1  360000  10.0  70  40000.0 ;
  249  469  2000  6614.240234375  55  240.0 ;
  250  499  4000  102293.0  55  480.0 ;
  251  15  3000  18421.80078125  30  360.0 ;
  251  113  4000  16231.7998046875  55  480.0 ;
  251  371  4000  6953.77001953125  60  480.0 ;
  252  492  4000  7134.490234375  55  480.0 ;
  252  498  4000  72883.296875  70  480.0 ;
  253  492  2000  9465.33984375  55  240.0 ;
  253  526  4000  64038.8984375  75  480.0 ;
  254  524  4000  214.3679962158203  55  480.0 ;
  255  1  360000  10.0  70  40000.0 ;
  255  400  4000  112027.0  70  480.0 ;
  256  1  360000  10.0  70  40000.0 ;
  256  372  6000  93313.796875  70  720.0 ;
  257  311  4000  99640.296875  75  480.0 ;
  258  436  4000  143952.0  75  480.0 ;
  258  443  4000  687.2550048828125  75  480.0 ;
  258  522  4000  36589.3984375  60  480.0 ;
  259  522  4000  829.3599853515625  45  480.0 ;
  260  143  2000  293798.0  45  240.0 ;
  260  188  6000  83707.203125  65  720.0 ;
  260  189  12000  161326.0  65  1440.0 ;
  260  370  3000  70723.6015625  75  360.0 ;
  260  531  4000  36597.19921875  75  480.0 ;
  261  187  6000  162033.0  75  720.0 ;
  261  282  4000  25439.19921875  70  480.0 ;
  262  9  4000  24945.30078125  75  480.0 ;
  262  370  4000  21465.099609375  75  480.0 ;
  263  194  4000  11977.5  35  480.0 ;
  263  503  4000  77906.6015625  65  480.0 ;
  263  514  2000  244002.0  75  240.0 ;
  264  138  2000  193152.0  75  240.0 ;
  264  209  2000  4168.02001953125  75  240.0 ;
  264  503  2000  202375.0  75  240.0 ;
  265  205  4000  62902.19921875  65  480.0 ;
  265  206  2000  1659.93994140625  65  240.0 ;
  265  453  6000  17793.19921875  65  720.0 ;
  266  1  360000  10.0  70  40000.0 ;
  266  164  4000  2144.43994140625  75  480.0 ;
  267  1  360000  10.0  70  40000.0 ;
  267  409  4000  95091.1015625  75  480.0 ;
  268  269  2000  16737.099609375  70  240.0 ;
  268  373  2000  13536.0  55  240.0 ;
  268  374  2000  283.1119995117188  55  240.0 ;
  269  221  4000  125299.0  65  480.0 ;
  269  268  2000  16737.099609375  70  240.0 ;
  269  343  3000  81240.796875  70  360.0 ;
  270  406  4000  72505.296875  55  480.0 ;
  270  466  4000  18099.0  85  480.0 ;
  271  406  4000  61444.5  65  480.0 ;
  271  407  4000  1805.410034179688  35  480.0 ;
  272  288  8000  22385.900390625  70  960.0 ;
  272  289  4000  96842.703125  70  480.0 ;
  272  466  4000  49088.0  65  480.0 ;
  273  334  4000  2331.929931640625  45  480.0 ;
  274  500  4000  52535.5  75  480.0 ;
  274  501  8000  17030.30078125  75  960.0 ;
  275  28  3000  59317.6015625  40  360.0 ;
  275  336  2000  7473.169921875  60  240.0 ;
  276  435  4000  202462.0  65  480.0 ;
  276  446  4000  135820.0  75  480.0 ;
  276  452  2000  20444.69921875  70  240.0 ;
  277  230  2000  29831.30078125  65  240.0 ;
  277  231  2000  326.9880065917969  65  240.0 ;
  277  381  4000  44134.80078125  60  480.0 ;
  278  233  4000  272433.0  60  480.0 ;
  278  381  2000  3782.0400390625  60  240.0 ;
  279  1  360000  10.0  70  40000.0 ;
  279  14  4000  41216.19921875  40  480.0 ;
  279  468  2000  52618.80078125  75  240.0 ;
  280  7  2000  22024.900390625  70  240.0 ;
  280  324  4000  102373.0  70  480.0 ;
  280  367  4000  20770.80078125  75  480.0 ;
  281  84  2000  157236.0  70  240.0 ;
  281  338  2000  113.8209991455078  75  240.0 ;
  282  261  4000  25439.19921875  70  480.0 ;
  282  378  2000  118779.0  65  240.0 ;
  282  473  2000  45190.8984375  70  240.0 ;
  283  464  4000  128924.0  65  480.0 ;
  284  519  2000  361.9070129394531  60  240.0 ;
  285  77  2000  64820.69921875  65  240.0 ;
  285  155  4000  44056.6015625  75  480.0 ;
  285  236  4000  34701.19921875  75  480.0 ;
  285  519  2000  205714.0  70  240.0 ;
  286  1  360000  10.0  70  40000.0 ;
  286  179  4000  20946.69921875  65  480.0 ;
  287  1  360000  10.0  70  40000.0 ;
  287  435  4000  36584.6015625  60  480.0 ;
  288  1  360000  10.0  70  40000.0 ;
  288  40  4000  105514.0  55  480.0 ;
  288  110  3000  13735.900390625  65  360.0 ;
  288  272  8000  22385.900390625  70  960.0 ;
  289  149  2000  853.843994140625  65  240.0 ;
  289  272  4000  96842.703125  70  480.0 ;
  289  290  2000  34669.69921875  65  240.0 ;
  290  79  2000  1532.81005859375  55  240.0 ;
  290  289  2000  34669.69921875  65  240.0 ;
  290  382  4000  151740.0  75  480.0 ;
  291  153  2000  131188.0  70  240.0 ;
  291  325  4000  89589.3984375  75  480.0 ;
  291  391  4000  70868.5  60  480.0 ;
  292  133  6000  4213.14013671875  55  720.0 ;
  292  354  4000  42906.3984375  65  480.0 ;
  292  537  12000  52212.3984375  65  1440.0 ;
  292  540  14000  58527.69921875  65  1680.0 ;
  293  353  12000  45506.80078125  65  1440.0 ;
  293  462  4000  41042.3984375  65  480.0 ;
  293  542  12000  17867.400390625  65  1440.0 ;
  294  50  2000  9649.4296875  55  240.0 ;
  294  326  4000  18835.5  55  480.0 ;
  294  327  2000  166727.0  70  240.0 ;
  295  369  2000  53352.30078125  75  240.0 ;
  296  297  4000  9056.919921875  45  480.0 ;
  296  369  4000  6014.4599609375  45  480.0 ;
  297  296  4000  9056.919921875  45  480.0 ;
  297  368  4000  701.14501953125  65  480.0 ;
  298  299  2000  15120.900390625  65  240.0 ;
  298  368  2000  1012.609985351562  65  240.0 ;
  299  118  4000  83290.6015625  65  480.0 ;
  299  298  2000  15120.900390625  65  240.0 ;
  300  176  6000  54391.5  65  720.0 ;
  301  49  2000  50823.19921875  50  240.0 ;
  301  329  6000  1408.630004882812  65  720.0 ;
  302  123  2000  329.8290100097656  45  240.0 ;
  303  26  2000  16287.2998046875  70  240.0 ;
  303  123  6000  9490.0595703125  40  720.0 ;
  303  391  4000  16141.099609375  70  480.0 ;
  304  13  2000  115214.0  75  240.0 ;
  304  357  2000  493.9580078125  50  240.0 ;
  305  221  4000  9677.2802734375  70  480.0 ;
  305  410  4000  24851.30078125  55  480.0 ;
  305  426  4000  37306.0  75  480.0 ;
  306  410  4000  5071.919921875  55  480.0 ;
  306  411  4000  15110.2001953125  75  480.0 ;
  307  221  4000  46745.30078125  70  480.0 ;
  308  222  4000  50491.80078125  75  480.0 ;
  309  317  4000  44847.0  75  480.0 ;
  309  530  2000  24579.80078125  55  240.0 ;
  310  237  2000  238016.0  65  240.0 ;
  310  384  4000  1221.619995117188  55  480.0 ;
  310  458  4000  91013.0  70  480.0 ;
  311  257  4000  99640.296875  75  480.0 ;
  311  313  2000  114165.0  75  240.0 ;
  311  384  2000  21097.599609375  55  240.0 ;
  311  385  4000  2098.6201171875  75  480.0 ;
  312  316  4000  11821.099609375  65  480.0 ;
  312  505  4000  4720.0  55  480.0 ;
  312  506  4000  497.7420043945312  65  480.0 ;
  313  311  2000  114165.0  75  240.0 ;
  313  314  4000  122.4209976196289  75  480.0 ;
  314  313  4000  122.4209976196289  75  480.0 ;
  314  315  4000  124.2239990234375  60  480.0 ;
  314  506  4000  11274.2998046875  75  480.0 ;
  315  153  2000  18835.599609375  60  240.0 ;
  315  314  4000  124.2239990234375  60  480.0 ;
  316  153  3000  12914.5  55  360.0 ;
  316  312  4000  11821.099609375  65  480.0 ;
  316  317  4000  76387.6015625  75  480.0 ;
  317  309  4000  44847.0  75  480.0 ;
  317  316  4000  76387.6015625  75  480.0 ;
  317  325  4000  171837.0  75  480.0 ;
  318  319  4000  3897.2900390625  40  480.0 ;
  318  507  2000  99764.6015625  70  240.0 ;
  318  523  4000  122830.0  70  480.0 ;
  319  66  4000  56443.69921875  70  480.0 ;
  319  173  2000  121871.0  60  240.0 ;
  319  318  4000  3897.2900390625  40  480.0 ;
  319  448  4000  57493.6015625  70  480.0 ;
  320  120  4000  49504.19921875  70  480.0 ;
  320  172  4000  11200.099609375  55  480.0 ;
  320  321  4000  15721.7001953125  55  480.0 ;
  321  121  2000  41315.5  75  240.0 ;
  321  173  4000  24702.19921875  55  480.0 ;
  321  320  4000  15721.7001953125  55  480.0 ;