<NUMBER OF NODES> 550
<NUMBER OF LINKS> 1366
<NUMBER OF ZONES> 110
<FIRST THRU NODE> 111
<END OF METADATA>


~ init_node term_node capacity length free_flow_time alpha beta speed toll link_type ;
	2	361	90000.0	62296.855774	14.158376312272729	0.15	4	50.0	0	0	;
	3	362	90000.0	22417.433853	5.094871330227273	0.15	4	50.0	0	0	;
	3	363	90000.0	35648.439331	8.101918029772728	0.15	4	50.0	0	0	;
	4	364	90000.0	14152.711601	3.2165253638636364	0.15	4	50.0	0	0	;
	4	365	90000.0	78040.85083	17.73655700681818	0.15	4	50.0	0	0	;
	5	366	90000.0	29969.852142	6.8113300322727275	0.15	4	50.0	0	0	;
	5	367	90000.0	9380.451164	2.131920719090909	0.15	4	50.0	0	0	;
	6	195	90000.0	130730.152588	29.71139831545455	0.15	4	50.0	0	0	;
	6	368	90000.0	35243.749237	8.009943008409092	0.15	4	50.0	0	0	;
	7	281	90000.0	22024.942017	5.005668640227274	0.15	4	50.0	0	0	;
	7	369	90000.0	6127.885265	1.392701196590909	0.15	4	50.0	0	0	;
	8	370	90000.0	54059.247894	12.286192703181818	0.15	4	50.0	0	0	;
	8	371	90000.0	57100.609589	12.977411270227272	0.15	4	50.0	0	0	;
	9	262	90000.0	24945.310593	5.669388771136364	0.15	4	50.0	0	0	;
	9	372	90000.0	13143.393288	2.987134838181818	0.15	4	50.0	0	0	;
	10	373	90000.0	113887.423096	25.88350524909091	0.15	4	50.0	0	0	;
	11	374	90000.0	70551.800537	16.034500122045458	0.15	4	50.0	0	0	;
	12	375	90000.0	740.195439	0.16822623613636362	0.15	4	50.0	0	0	;
	12	376	90000.0	12105.694199	2.7512941361363636	0.15	4	50.0	0	0	;
	13	306	90000.0	115214.150391	26.185034179772725	0.15	4	50.0	0	0	;
	13	377	90000.0	11132.532578	2.5301210404545458	0.15	4	50.0	0	0	;
	14	280	90000.0	41216.242676	9.367327880909091	0.15	4	50.0	0	0	;
	15	113	90000.0	8681.9977	1.9731812954545456	0.15	4	50.0	0	0	;
	15	251	90000.0	18421.846161	4.186783218409091	0.15	4	50.0	0	0	;
	16	378	90000.0	52049.649811	11.829465866136363	0.15	4	50.0	0	0	;
	16	379	90000.0	913.690002	0.20765681863636365	0.15	4	50.0	0	0	;
	17	380	90000.0	39455.949783	8.967261314318181	0.15	4	50.0	0	0	;
	17	381	90000.0	2648.859787	0.6020135879545455	0.15	4	50.0	0	0	;
	18	382	90000.0	28355.286255	6.444383239772727	0.15	4	50.0	0	0	;
	18	383	90000.0	23623.477707	5.368972206136363	0.15	4	50.0	0	0	;
	19	384	90000.0	10859.594994	2.468089771363636	0.15	4	50.0	0	0	;
	19	385	90000.0	8573.594341	1.9485441684090907	0.15	4	50.0	0	0	;
	20	386	90000.0	6583.551865	1.4962617875000002	0.15	4	50.0	0	0	;
	20	387	90000.0	20948.047371	4.7609198570454545	0.15	4	50.0	0	0	;
	21	388	90000.0	18760.734901	4.263803386590909	0.15	4	50.0	0	0	;
	22	329	90000.0	109724.023132	24.937277984545453	0.15	4	50.0	0	0	;
	22	389	90000.0	1227.697728	0.2790222109090909	0.15	4	50.0	0	0	;
	23	390	90000.0	155312.836304	35.29837188727272	0.15	4	50.0	0	0	;
	24	391	90000.0	121440.201416	27.600045776363636	0.15	4	50.0	0	0	;
	24	392	90000.0	6630.200443	1.5068637370454547	0.15	4	50.0	0	0	;
	25	182	90000.0	73759.229736	16.763461303636362	0.15	4	50.0	0	0	;
	25	185	90000.0	54966.002655	12.492273330681819	0.15	4	50.0	0	0	;
	25	186	90000.0	48001.978455	10.909540557954545	0.15	4	50.0	0	0	;
	26	305	90000.0	16287.322311	3.701664161590909	0.15	4	50.0	0	0	;
	26	393	90000.0	2550.005593	0.5795467256818181	0.15	4	50.0	0	0	;
	27	394	90000.0	105512.817078	23.980185699545455	0.15	4	50.0	0	0	;
	28	276	90000.0	59317.590637	13.481270599318183	0.15	4	50.0	0	0	;
	28	395	90000.0	14288.377876	3.247358608181818	0.15	4	50.0	0	0	;
	29	396	90000.0	87211.452942	19.820784759545454	0.15	4	50.0	0	0	;
	29	397	90000.0	61539.380493	13.98622283931818	0.15	4	50.0	0	0	;
	30	229	90000.0	34208.823395	7.774732589772727	0.15	4	50.0	0	0	;
	30	398	90000.0	29364.118652	6.67366333	0.15	4	50.0	0	0	;
	31	399	90000.0	119655.242615	27.194373321590906	0.15	4	50.0	0	0	;
	31	400	90000.0	11560.053177	2.6272848129545454	0.15	4	50.0	0	0	;
	32	401	90000.0	36554.881897	8.307927703863637	0.15	4	50.0	0	0	;
	32	402	90000.0	11148.514938	2.5337533949999997	0.15	4	50.0	0	0	;
	33	201	90000.0	45210.176239	10.27504005431818	0.15	4	50.0	0	0	;
	33	403	90000.0	6310.31908	1.4341634272727273	0.15	4	50.0	0	0	;
	34	404	90000.0	58943.364716	13.396219253636364	0.15	4	50.0	0	0	;
	35	176	90000.0	68542.716064	15.577890014545453	0.15	4	50.0	0	0	;
	35	405	90000.0	24728.48877	5.62011108409091	0.15	4	50.0	0	0	;
	36	198	90000.0	66476.666107	15.108333206136365	0.15	4	50.0	0	0	;
	36	200	90000.0	68902.39975	15.659636306818182	0.15	4	50.0	0	0	;
	37	406	90000.0	65411.240845	14.866191101136364	0.15	4	50.0	0	0	;
	37	407	90000.0	92401.188354	21.000270080454545	0.15	4	50.0	0	0	;
	38	408	90000.0	15678.56884	3.5633111	0.15	4	50.0	0	0	;
	38	409	90000.0	57578.816528	13.086094665454546	0.15	4	50.0	0	0	;
	39	404	90000.0	40341.608734	9.168547439545454	0.15	4	50.0	0	0	;
	39	410	90000.0	12649.109573	2.8747976302272726	0.15	4	50.0	0	0	;
	40	224	90000.0	74324.50882	16.891933822727275	0.15	4	50.0	0	0	;
	40	289	90000.0	105513.85437	23.980421447727274	0.15	4	50.0	0	0	;
	41	411	90000.0	105218.236084	23.913235473636362	0.15	4	50.0	0	0	;
	42	412	90000.0	15018.631783	3.4133254052272726	0.15	4	50.0	0	0	;
	42	413	90000.0	6408.100891	1.4563865661363635	0.15	4	50.0	0	0	;
	43	414	90000.0	12039.970894	2.736357021363636	0.15	4	50.0	0	0	;
	43	415	90000.0	156955.343628	35.671669006363636	0.15	4	50.0	0	0	;
	44	416	90000.0	21078.063927	4.790469074318182	0.15	4	50.0	0	0	;
	44	417	90000.0	158229.118652	35.96116333	0.15	4	50.0	0	0	;
	45	163	90000.0	94122.137146	21.39139480590909	0.15	4	50.0	0	0	;
	45	418	90000.0	3773.541012	0.8576229572727272	0.15	4	50.0	0	0	;
	46	419	90000.0	5553.526726	1.262165165	0.15	4	50.0	0	0	;
	46	420	90000.0	100168.686218	22.76561050409091	0.15	4	50.0	0	0	;
	47	421	90000.0	4096.014977	0.9309124947727272	0.15	4	50.0	0	0	;
	48	351	90000.0	122796.315308	27.90825347909091	0.15	4	50.0	0	0	;
	48	422	90000.0	26894.788513	6.112451934772728	0.15	4	50.0	0	0	;
	49	183	90000.0	59575.96656	13.5399924	0.15	4	50.0	0	0	;
	49	303	90000.0	50823.173279999995	11.5507212	0.15	4	50.0	0	0	;
	49	423	90000.0	29605.452805	6.728512001136363	0.15	4	50.0	0	0	;
	49	424	90000.0	2375.151157	0.5398070811363636	0.15	4	50.0	0	0	;
	49	536	90000.0	16438.75728	3.7360812000000005	0.15	4	50.0	0	0	;
	50	296	90000.0	9649.433441	2.193053054772727	0.15	4	50.0	0	0	;
	50	425	90000.0	21063.901863	4.787250423409091	0.15	4	50.0	0	0	;
	51	426	90000.0	1813.829112	0.4122338890909091	0.15	4	50.0	0	0	;
	51	427	90000.0	98250.228882	22.329597473181817	0.15	4	50.0	0	0	;
	52	428	90000.0	131814.093018	29.95774841318182	0.15	4	50.0	0	0	;
	52	429	90000.0	279.647176	0.06355617636363636	0.15	4	50.0	0	0	;
	53	430	90000.0	4765.33267	1.0830301522727273	0.15	4	50.0	0	0	;
	54	431	90000.0	7380.172348	1.6773118972727272	0.15	4	50.0	0	0	;
	54	432	90000.0	138464.336243	31.469167327954544	0.15	4	50.0	0	0	;
	55	433	90000.0	1506.742859	0.34244155886363636	0.15	4	50.0	0	0	;
	55	434	90000.0	2857.765646	0.6494921922727274	0.15	4	50.0	0	0	;
	56	237	90000.0	52208.637543	11.86559944159091	0.15	4	50.0	0	0	;
	56	435	90000.0	17103.185577	3.887087631136363	0.15	4	50.0	0	0	;
	57	324	90000.0	147003.962402	33.409991455000004	0.15	4	50.0	0	0	;
	57	436	90000.0	46666.806793	10.606092452954547	0.15	4	50.0	0	0	;
	58	437	90000.0	40610.343018	9.229623413181818	0.15	4	50.0	0	0	;
	59	438	90000.0	2378.034554	0.5404623986363636	0.15	4	50.0	0	0	;
	59	439	90000.0	104978.540955	23.85875930795455	0.15	4	50.0	0	0	;
	60	369	90000.0	112032.160034	25.461854553181816	0.15	4	50.0	0	0	;
	60	440	90000.0	58235.332031	13.235302734318182	0.15	4	50.0	0	0	;
	61	129	90000.0	151204.755249	34.364717102045454	0.15	4	50.0	0	0	;
	61	441	90000.0	7290.626564	1.6569605827272729	0.15	4	50.0	0	0	;
	62	442	90000.0	25119.897995	5.709067726136363	0.15	4	50.0	0	0	;
	62	443	90000.0	120482.276917	27.382335662954542	0.15	4	50.0	0	0	;
	63	444	90000.0	132083.597717	30.01899948113636	0.15	4	50.0	0	0	;
	63	445	90000.0	115688.706665	26.292887878409093	0.15	4	50.0	0	0	;
	64	446	90000.0	14529.651604	3.3021935463636365	0.15	4	50.0	0	0	;
	64	447	90000.0	38555.683136	8.762655258181818	0.15	4	50.0	0	0	;
	65	448	90000.0	2674.846544	0.6079196690909092	0.15	4	50.0	0	0	;
	65	449	90000.0	45563.9534	10.355443954545455	0.15	4	50.0	0	0	;
	66	321	90000.0	56443.731537	12.828120803863637	0.15	4	50.0	0	0	;
	66	450	90000.0	3025.592709	0.6876347065909091	0.15	4	50.0	0	0	;
	67	451	90000.0	29782.834854	6.768826103181818	0.15	4	50.0	0	0	;
	67	532	90000.0	101690.535278	23.111485290454546	0.15	4	50.0	0	0	;
	68	421	90000.0	138294.210205	31.430502319318183	0.15	4	50.0	0	0	;
	68	452	90000.0	10970.37632	2.493267345454545	0.15	4	50.0	0	0	;
	69	453	90000.0	117536.295776	26.712794494545452	0.15	4	50.0	0	0	;
	69	454	90000.0	39418.695374	8.95879440318182	0.15	4	50.0	0	0	;
	70	455	90000.0	13306.711464	3.0242526054545453	0.15	4	50.0	0	0	;
	70	456	90000.0	8420.610695	1.9137751579545452	0.15	4	50.0	0	0	;
	71	410	90000.0	61948.038483	14.079099655227271	0.15	4	50.0	0	0	;
	71	457	90000.0	4731.753788	1.0753985881818182	0.15	4	50.0	0	0	;
	72	458	90000.0	6558.228207	1.4905064106818184	0.15	4	50.0	0	0	;
	72	459	90000.0	7095.173721	1.6125394820454546	0.15	4	50.0	0	0	;
	73	435	90000.0	90349.786377	20.53404235840909	0.15	4	50.0	0	0	;
	73	460	90000.0	2362.14519	0.5368511795454546	0.15	4	50.0	0	0	;
	74	240	90000.0	35116.268005	7.980970001136364	0.15	4	50.0	0	0	;
	74	461	90000.0	23138.070145	5.258652305681818	0.15	4	50.0	0	0	;
	75	462	90000.0	26034.389648	5.916906738181818	0.15	4	50.0	0	0	;
	75	463	90000.0	62371.933594	14.175439453181818	0.15	4	50.0	0	0	;
	76	243	90000.0	22298.726807	5.067892456136363	0.15	4	50.0	0	0	;
	76	464	90000.0	114130.149536	25.938670349090913	0.15	4	50.0	0	0	;
	77	286	90000.0	64820.658875	14.731967926136363	0.15	4	50.0	0	0	;
	77	465	90000.0	28105.52536	6.3876194	0.15	4	50.0	0	0	;
	78	466	90000.0	110487.430115	25.110779571590907	0.15	4	50.0	0	0	;
	78	467	90000.0	6055.641117	1.3762820720454543	0.15	4	50.0	0	0	;
	79	291	90000.0	1532.808924	0.3483656645454545	0.15	4	50.0	0	0	;
	79	468	90000.0	120817.533875	27.458530426136363	0.15	4	50.0	0	0	;
	80	469	90000.0	133880.873108	30.427471160909093	0.15	4	50.0	0	0	;
	80	470	90000.0	110136.895752	25.03111267090909	0.15	4	50.0	0	0	;
	81	471	90000.0	109759.774475	24.945403289772727	0.15	4	50.0	0	0	;
	81	472	90000.0	74166.034698	16.855916976818182	0.15	4	50.0	0	0	;
	82	473	90000.0	59872.693176	13.607430267272727	0.15	4	50.0	0	0	;
	83	474	90000.0	24530.982742	5.575223350454546	0.15	4	50.0	0	0	;
	83	475	90000.0	1746.571584	0.39694808727272723	0.15	4	50.0	0	0	;
	84	282	90000.0	157236.208191	35.73550186159091	0.15	4	50.0	0	0	;
	84	476	90000.0	3924.665022	0.8919693231818183	0.15	4	50.0	0	0	;
	85	477	90000.0	32277.457809	7.335785865681817	0.15	4	50.0	0	0	;
	85	478	90000.0	23695.003052	5.385227966363637	0.15	4	50.0	0	0	;
	86	479	90000.0	78939.025269	17.940687561136365	0.15	4	50.0	0	0	;
	86	480	90000.0	70357.172241	15.990266418409089	0.15	4	50.0	0	0	;
	87	436	90000.0	38342.919846	8.714299965	0.15	4	50.0	0	0	;
	88	481	90000.0	54569.278564	12.402108764545455	0.15	4	50.0	0	0	;
	88	482	90000.0	123432.377014	28.05281295772727	0.15	4	50.0	0	0	;
	89	483	90000.0	90081.913147	20.473162078863638	0.15	4	50.0	0	0	;
	89	484	90000.0	48822.658081	11.096058654772728	0.15	4	50.0	0	0	;
	90	246	90000.0	27543.791199	6.2599525452272715	0.15	4	50.0	0	0	;
	90	485	90000.0	288.409029	0.06554750659090908	0.15	4	50.0	0	0	;
	91	470	90000.0	145048.484802	32.96556472772727	0.15	4	50.0	0	0	;
	91	486	90000.0	5458.307934	1.2405245304545456	0.15	4	50.0	0	0	;
	92	487	90000.0	140034.152527	31.825943756136365	0.15	4	50.0	0	0	;
	92	488	90000.0	150643.408813	34.237138366590905	0.15	4	50.0	0	0	;
	93	489	90000.0	103887.50061	23.610795593181816	0.15	4	50.0	0	0	;
	93	490	90000.0	112242.12616	25.509574127272725	0.15	4	50.0	0	0	;
	94	491	90000.0	2204.023075	0.5009143352272728	0.15	4	50.0	0	0	;
	94	492	90000.0	82649.143524	18.783896255454547	0.15	4	50.0	0	0	;
	95	392	90000.0	120799.688416	27.45447464	0.15	4	50.0	0	0	;
	95	493	90000.0	8805.281925	2.0012004375	0.15	4	50.0	0	0	;
	96	494	90000.0	38990.416946	8.86145839681818	0.15	4	50.0	0	0	;
	96	495	90000.0	16537.28714	3.75847435	0.15	4	50.0	0	0	;
	97	496	90000.0	9499.522648	2.15898242	0.15	4	50.0	0	0	;
	97	497	90000.0	65929.816589	14.984049224772725	0.15	4	50.0	0	0	;
	98	218	90000.0	15836.28891	3.599156570454545	0.15	4	50.0	0	0	;
	98	498	90000.0	2836.531363	0.6446662188636363	0.15	4	50.0	0	0	;
	99	410	90000.0	91306.885071	20.751564788863636	0.15	4	50.0	0	0	;
	99	499	90000.0	10092.208157	2.293683672045454	0.15	4	50.0	0	0	;
	100	500	90000.0	325.696464	0.07402192363636363	0.15	4	50.0	0	0	;
	100	501	90000.0	58938.394775	13.395089721590908	0.15	4	50.0	0	0	;
	101	502	90000.0	4004.855661	0.9101944684090909	0.15	4	50.0	0	0	;
	101	503	90000.0	49615.496979	11.27624931340909	0.15	4	50.0	0	0	;
	102	504	90000.0	1920.209184	0.43641117818181824	0.15	4	50.0	0	0	;
	102	505	90000.0	66323.237457	15.073463058409093	0.15	4	50.0	0	0	;
	103	389	90000.0	33070.744858	7.516078376818182	0.15	4	50.0	0	0	;
	103	506	90000.0	15761.452789	3.582148361136364	0.15	4	50.0	0	0	;
	104	507	90000.0	926.503286	0.21056892863636364	0.15	4	50.0	0	0	;
	104	508	90000.0	4784.646263	1.0874196052272729	0.15	4	50.0	0	0	;
	105	509	90000.0	95321.972351	21.664084625227275	0.15	4	50.0	0	0	;
	105	510	90000.0	10427.968655	2.369992876136364	0.15	4	50.0	0	0	;
	106	189	90000.0	86625.765381	19.687673950227275	0.15	4	50.0	0	0	;
	106	511	90000.0	8086.310463	1.8377978325000002	0.15	4	50.0	0	0	;
	107	512	90000.0	11028.429451	2.5064612388636363	0.15	4	50.0	0	0	;
	107	513	90000.0	104979.094849	23.858885192954546	0.15	4	50.0	0	0	;
	108	514	90000.0	5311.345997	1.2071240902272729	0.15	4	50.0	0	0	;
	108	515	90000.0	5002.457857	1.1369222402272727	0.15	4	50.0	0	0	;
	109	516	90000.0	47302.420349	10.750550079318183	0.15	4	50.0	0	0	;
	110	180	90000.0	42595.317993	9.68075408931818	0.15	4	50.0	0	0	;
	110	289	90000.0	13735.930252	3.12180233	0.15	4	50.0	0	0	;
	111	485	1000.0	4591.933622	0.9487466161157024	0.15	4	55.0	0	0	;
	111	526	1000.0	2542.114806	0.5777533650000001	0.15	4	50.0	0	0	;
	112	1	90000.0	10.0	0.0016233766233766235	0.15	4	70.0	0	0	;
	112	113	1000.0	70943.031006	11.516725812662338	0.15	4	70.0	0	0	;
	113	15	1000.0	8681.9977	2.1924236616161616	0.15	4	45.0	0	0	;
	113	112	1000.0	70943.031006	11.516725812662338	0.15	4	70.0	0	0	;
	113	251	1000.0	16231.800728	3.3536778363636364	0.15	4	55.0	0	0	;
	114	115	500.0	107112.755127	18.726006141083918	0.15	4	65.0	0	0	;
	114	125	500.0	36602.546997	6.932300567613636	0.15	4	60.0	0	0	;
	114	126	500.0	2417.756467	0.499536460123967	0.15	4	55.0	0	0	;
	115	114	500.0	107112.755127	18.726006141083918	0.15	4	65.0	0	0	;
	115	140	1000.0	127399.295654	24.128654479924244	0.15	4	60.0	0	0	;
	116	118	1500.0	2174.581246	0.38017154650349655	0.15	4	65.0	0	0	;
	117	248	750.0	1407.564039	0.29081901632231405	0.15	4	55.0	0	0	;
	118	116	1500.0	2174.581246	0.38017154650349655	0.15	4	65.0	0	0	;
	118	248	3500.0	16016.729965	2.8001276162587416	0.15	4	65.0	0	0	;
	118	301	1000.0	83290.623322	14.561297783566435	0.15	4	65.0	0	0	;
	119	239	1000.0	881.930158	0.15418359405594406	0.15	4	65.0	0	0	;
	119	240	1000.0	2704.172401	0.47275741276223776	0.15	4	65.0	0	0	;
	120	130	1000.0	9470.034714	1.5373432977272727	0.15	4	70.0	0	0	;
	120	322	1000.0	49504.234772	8.0364017487013	0.15	4	70.0	0	0	;
	120	391	500.0	63013.222046	10.22941916331169	0.15	4	70.0	0	0	;
	121	323	500.0	41315.490417	6.259922790454546	0.15	4	75.0	0	0	;
	121	391	750.0	3622.512989	0.7484530969008265	0.15	4	55.0	0	0	;
	121	392	500.0	141586.687317	21.45252838136364	0.15	4	75.0	0	0	;
	122	123	1000.0	82714.387207	13.427660260876625	0.15	4	70.0	0	0	;
	122	124	1000.0	28123.861771	5.810715241942148	0.15	4	55.0	0	0	;
	123	122	1000.0	82714.387207	13.427660260876625	0.15	4	70.0	0	0	;
	123	304	500.0	329.855409	0.08329682045454546	0.15	4	45.0	0	0	;
	123	305	1500.0	9490.156174	2.696067094886364	0.15	4	40.0	0	0	;
	124	122	1000.0	28123.861771	5.810715241942148	0.15	4	55.0	0	0	;
	124	495	1000.0	3875.247602	0.5871587275757575	0.15	4	75.0	0	0	;
	124	528	1000.0	94995.335999	14.393232727121212	0.15	4	75.0	0	0	;
	125	114	500.0	36602.546997	6.932300567613636	0.15	4	60.0	0	0	;
	125	397	2000.0	72380.844269	10.96679458621212	0.15	4	75.0	0	0	;
	126	114	500.0	2417.756467	0.499536460123967	0.15	4	55.0	0	0	;
	127	350	1000.0	503.006798	0.0879382513986014	0.15	4	65.0	0	0	;
	128	139	1500.0	46463.457184	8.122982025174824	0.15	4	65.0	0	0	;
	129	61	500.0	151204.755249	24.546226501461042	0.15	4	70.0	0	0	;
	129	458	1000.0	7576.979084	1.5654915462809915	0.15	4	55.0	0	0	;
	130	120	1000.0	9470.034714	1.5373432977272727	0.15	4	70.0	0	0	;
	130	352	500.0	115930.436096	18.819875989610388	0.15	4	70.0	0	0	;
	130	458	500.0	112019.803162	18.185032980844156	0.15	4	70.0	0	0	;
	131	132	1000.0	39335.578537	8.127185648140497	0.15	4	55.0	0	0	;
	131	134	1500.0	32047.445755	7.283510398863637	0.15	4	50.0	0	0	;
	131	135	1500.0	2047.335262	0.42300315330578514	0.15	4	55.0	0	0	;
	132	131	1000.0	39335.578537	8.127185648140497	0.15	4	55.0	0	0	;
	133	294	1500.0	4213.141222	0.8704837235537191	0.15	4	55.0	0	0	;
	134	131	1500.0	32047.445755	7.283510398863637	0.15	4	50.0	0	0	;
	134	467	1000.0	39709.809494	6.9422743870629375	0.15	4	65.0	0	0	;
	135	131	1500.0	2047.335262	0.42300315330578514	0.15	4	55.0	0	0	;
	136	522	1000.0	482.886479	0.09145577253787879	0.15	4	60.0	0	0	;
	137	144	1000.0	7898.189163	2.991738319318182	0.15	4	30.0	0	0	;
	138	167	500.0	18104.999886	2.743181800909091	0.15	4	75.0	0	0	;
	138	265	500.0	193152.138062	29.265475463939396	0.15	4	75.0	0	0	;
	138	403	500.0	65339.632416	10.607083184415584	0.15	4	70.0	0	0	;
	139	128	1500.0	46463.457184	8.122982025174824	0.15	4	65.0	0	0	;
	139	140	1500.0	26492.21077	5.473597266528926	0.15	4	55.0	0	0	;
	139	350	1500.0	34698.732605	6.066211993881119	0.15	4	65.0	0	0	;
	140	115	1000.0	127399.295654	24.128654479924244	0.15	4	60.0	0	0	;
	140	139	1500.0	26492.21077	5.473597266528926	0.15	4	55.0	0	0	;
	140	351	1500.0	29047.711716	5.501460552272728	0.15	4	60.0	0	0	;
	141	341	500.0	1077.279775	0.16322420833333334	0.15	4	75.0	0	0	;
	142	342	1000.0	45.399652	0.007370073376623377	0.15	4	70.0	0	0	;
	143	260	500.0	293798.35144	74.19150288888889	0.15	4	45.0	0	0	;
	143	523	1000.0	7055.392799	2.0043729542613637	0.15	4	40.0	0	0	;
	144	137	1000.0	7898.189163	2.991738319318182	0.15	4	30.0	0	0	;
	144	160	1000.0	20667.323799	6.710170064610391	0.15	4	35.0	0	0	;
	144	523	1500.0	109194.822693	19.09000396730769	0.15	4	65.0	0	0	;
	145	335	1000.0	500.933236	0.16264066103896105	0.15	4	35.0	0	0	;
	146	225	500.0	21163.704758	4.0082774162878785	0.15	4	60.0	0	0	;
	146	491	500.0	154762.094421	31.97563934318181	0.15	4	55.0	0	0	;
	146	498	500.0	160078.862915	25.986828395292207	0.15	4	70.0	0	0	;
	147	148	1500.0	24145.643692	3.6584308624242423	0.15	4	75.0	0	0	;
	148	147	1500.0	24145.643692	3.6584308624242423	0.15	4	75.0	0	0	;
	148	353	2500.0	116321.253662	17.624432373030302	0.15	4	75.0	0	0	;
	148	431	500.0	25836.931458	4.516946059090909	0.15	4	65.0	0	0	;
	149	290	500.0	853.843639	0.14927336346153847	0.15	4	65.0	0	0	;
	150	346	1000.0	541.626863	0.11190637665289255	0.15	4	55.0	0	0	;
	151	432	500.0	240878.388062	39.10363442564935	0.15	4	70.0	0	0	;
	151	473	1000.0	55122.855377	8.948515483279222	0.15	4	70.0	0	0	;
	152	230	500.0	31474.361801	6.502967314256198	0.15	4	55.0	0	0	;
	152	432	1000.0	16710.667305	3.452617211776859	0.15	4	55.0	0	0	;
	152	527	750.0	58866.655426	9.556275231493506	0.15	4	70.0	0	0	;
	153	293	500.0	131187.648926	21.296696254220777	0.15	4	70.0	0	0	;
	153	317	500.0	18835.637741	3.5673556327651514	0.15	4	60.0	0	0	;
	153	318	750.0	12914.428596	2.6682703710743803	0.15	4	55.0	0	0	;
	154	155	500.0	87564.927979	15.30855384248252	0.15	4	65.0	0	0	;
	155	154	500.0	87564.927979	15.30855384248252	0.15	4	65.0	0	0	;
	155	286	1000.0	44056.641541	6.675248718333333	0.15	4	75.0	0	0	;
	155	330	1000.0	45153.054657	6.8413719177272725	0.15	4	75.0	0	0	;
	156	507	1000.0	116288.432922	24.026535727685953	0.15	4	55.0	0	0	;
	157	158	500.0	64172.35611	12.153855323863636	0.15	4	60.0	0	0	;
	157	377	500.0	174505.204468	26.440182495151518	0.15	4	75.0	0	0	;
	157	414	500.0	51087.329407	10.555233348553719	0.15	4	55.0	0	0	;
	158	157	500.0	64172.35611	12.153855323863636	0.15	4	60.0	0	0	;
	158	521	500.0	10763.561096	1.88174145034965	0.15	4	65.0	0	0	;
	159	349	1000.0	252.819035	0.04788239299242424	0.15	4	60.0	0	0	;
	160	144	1000.0	20667.323799	6.710170064610391	0.15	4	35.0	0	0	;
	160	511	500.0	61872.4823	12.783570723140494	0.15	4	55.0	0	0	;
	160	522	1000.0	101053.647766	17.666721637412586	0.15	4	65.0	0	0	;
	161	189	2000.0	40862.913666	8.442750757438017	0.15	4	55.0	0	0	;
	161	511	500.0	59223.710632	12.236303849586777	0.15	4	55.0	0	0	;
	162	533	500.0	411.920103	0.08510745929752066	0.15	4	55.0	0	0	;
	163	45	500.0	94122.137146	23.768216451010098	0.15	4	45.0	0	0	;
	163	189	1000.0	24738.834	4.01604448051948	0.15	4	70.0	0	0	;
	163	193	1000.0	91686.665039	13.89191894530303	0.15	4	75.0	0	0	;
	163	533	500.0	146927.09198	30.35683718595041	0.15	4	55.0	0	0	;
	164	1	90000.0	10.0	0.0016233766233766235	0.15	4	70.0	0	0	;
	164	267	1000.0	2144.442959	0.32491559984848484	0.15	4	75.0	0	0	;
	164	481	1000.0	129055.881958	19.553921508787877	0.15	4	75.0	0	0	;
	164	482	500.0	40772.344437	6.618887083928571	0.15	4	70.0	0	0	;
	165	167	500.0	15770.569382	2.7570925493006992	0.15	4	65.0	0	0	;
	165	482	500.0	192141.049805	31.191728864448045	0.15	4	70.0	0	0	;
	165	504	500.0	178451.387329	27.038088989242425	0.15	4	75.0	0	0	;
	166	1	90000.0	10.0	0.0016233766233766235	0.15	4	70.0	0	0	;
	166	504	500.0	124878.302307	18.920954895	0.15	4	75.0	0	0	;
	167	138	500.0	18104.999886	2.743181800909091	0.15	4	75.0	0	0	;
	167	165	500.0	15770.569382	2.7570925493006992	0.15	4	65.0	0	0	;
	167	210	500.0	93656.302185	14.19034881590909	0.15	4	75.0	0	0	;
	167	339	500.0	173533.7146	26.29298706060606	0.15	4	75.0	0	0	;
	168	169	500.0	26659.172058	4.039268493636364	0.15	4	75.0	0	0	;
	168	242	1000.0	61622.887573	10.773232093181818	0.15	4	65.0	0	0	;
	169	168	500.0	26659.172058	4.039268493636364	0.15	4	75.0	0	0	;
	169	244	500.0	57780.700836	10.101521125174827	0.15	4	65.0	0	0	;
	170	349	2000.0	45307.324219	7.920860877447552	0.15	4	65.0	0	0	;
	170	534	2000.0	26940.041656	4.709797492307692	0.15	4	65.0	0	0	;
	171	125	2000.0	29966.035309	5.238817361713287	0.15	4	65.0	0	0	;
	171	513	1500.0	47440.163727	8.293734917307692	0.15	4	65.0	0	0	;
	172	322	1000.0	11200.142899	2.314079111363636	0.15	4	55.0	0	0	;
	172	510	1000.0	8595.801716	1.5027625377622378	0.15	4	65.0	0	0	;
	173	321	500.0	121870.506592	23.08153533939394	0.15	4	60.0	0	0	;
	173	323	1000.0	24702.261887	5.103773117148761	0.15	4	55.0	0	0	;
	174	175	1000.0	20155.698166	4.164400447520661	0.15	4	55.0	0	0	;
	174	356	1500.0	83693.61145	17.292068481404957	0.15	4	55.0	0	0	;
	175	174	1000.0	20155.698166	4.164400447520661	0.15	4	55.0	0	0	;
	175	382	2000.0	6162.075005	1.0772858400349647	0.15	4	65.0	0	0	;
	176	35	1000.0	68542.716064	14.16171819504132	0.15	4	55.0	0	0	;
	176	302	1500.0	54391.468506	9.50899799055944	0.15	4	65.0	0	0	;
	176	347	1000.0	80563.994293	14.084614386888111	0.15	4	65.0	0	0	;
	176	548	2500.0	855.117517	0.1494960694055944	0.15	4	65.0	0	0	;
	177	355	1500.0	172206.604614	30.106049757692308	0.15	4	65.0	0	0	;
	178	1	90000.0	10.0	0.0016233766233766235	0.15	4	70.0	0	0	;
	178	436	1500.0	110768.757935	17.981941223214285	0.15	4	70.0	0	0	;
	179	287	1000.0	20946.721802	3.662014301048951	0.15	4	65.0	0	0	;
	179	407	1000.0	26883.368225	4.073237609848484	0.15	4	75.0	0	0	;
	180	1	90000.0	10.0	0.0016233766233766235	0.15	4	70.0	0	0	;
	180	110	500.0	42595.317993	8.800685535743801	0.15	4	55.0	0	0	;
	181	405	1000.0	14364.037285	2.3318242345779225	0.15	4	70.0	0	0	;
	182	1	90000.0	10.0	0.0016233766233766235	0.15	4	70.0	0	0	;
	182	25	1000.0	73759.229736	16.763461303636362	0.15	4	50.0	0	0	;
	183	49	500.0	59575.96656	13.5399924	0.15	4	50.0	0	0	;
	183	348	2500.0	776.289816	0.14702458636363636	0.15	4	60.0	0	0	;
	184	217	1500.0	53828.077698	9.410503094055944	0.15	4	65.0	0	0	;
	184	530	3000.0	77345.532532	11.71902008060606	0.15	4	75.0	0	0	;
	185	1	90000.0	10.0	0.0016233766233766235	0.15	4	70.0	0	0	;
	185	25	1000.0	54966.002655	12.492273330681819	0.15	4	50.0	0	0	;
	185	214	500.0	6697.000694	1.0871754373376623	0.15	4	70.0	0	0	;
	186	1	90000.0	10.0	0.0016233766233766235	0.15	4	70.0	0	0	;
	186	25	1000.0	48001.978455	9.91776414359504	0.15	4	55.0	0	0	;
	186	342	500.0	114627.697449	18.60839244301948	0.15	4	70.0	0	0	;
	187	341	1500.0	53686.50238	8.134318542424241	0.15	4	75.0	0	0	;
	187	342	500.0	46693.952637	7.580187116396104	0.15	4	70.0	0	0	;
	188	260	1500.0	83707.277527	14.634139427797203	0.15	4	65.0	0	0	;
	188	480	1000.0	141853.331909	24.799533550524476	0.15	4	65.0	0	0	;
	189	106	500.0	86625.765381	19.687673950227275	0.15	4	50.0	0	0	;
	189	163	1000.0	24738.834	4.01604448051948	0.15	4	70.0	0	0	;
	190	195	500.0	156226.95282	25.361518314935065	0.15	4	70.0	0	0	;
	190	519	500.0	153.626525	0.02327674621212121	0.15	4	75.0	0	0	;
	191	488	500.0	251.97889	0.038178619696969694	0.15	4	75.0	0	0	;
	192	523	500.0	12422.045746	2.3526601791666666	0.15	4	60.0	0	0	;
	193	163	1000.0	91686.665039	13.89191894530303	0.15	4	75.0	0	0	;
	193	418	500.0	55303.888092	8.379376983636364	0.15	4	75.0	0	0	;
	193	519	500.0	124082.004089	18.800303649848484	0.15	4	75.0	0	0	;
	194	1	90000.0	10.0	0.0016233766233766235	0.15	4	70.0	0	0	;
	194	264	1000.0	11977.525635	3.8888070243506494	0.15	4	35.0	0	0	;
	195	6	500.0	130730.152588	33.0126647949495	0.15	4	45.0	0	0	;
	195	190	500.0	156226.95282	25.361518314935065	0.15	4	70.0	0	0	;
	196	209	500.0	5217.197857	0.7904845237878787	0.15	4	75.0	0	0	;
	196	368	500.0	101182.997131	15.330757141060605	0.15	4	75.0	0	0	;
	196	518	500.0	177726.329956	26.928231811515147	0.15	4	75.0	0	0	;
	197	479	500.0	13644.121056	3.445485115151515	0.15	4	45.0	0	0	;
	198	36	1000.0	66476.666107	10.07222213742424	0.15	4	75.0	0	0	;
	198	487	500.0	20033.543129	3.794231653219698	0.15	4	60.0	0	0	;
	199	200	500.0	80458.663788	12.190706634545455	0.15	4	75.0	0	0	;
	199	201	500.0	104596.142578	15.84790039060606	0.15	4	75.0	0	0	;
	199	515	1000.0	65127.888794	9.867861938484848	0.15	4	75.0	0	0	;
	199	518	2000.0	118737.11792	17.990472412121214	0.15	4	75.0	0	0	;
	200	36	1000.0	68902.39975	15.659636306818182	0.15	4	50.0	0	0	;
	200	199	500.0	80458.663788	12.190706634545455	0.15	4	75.0	0	0	;
	201	33	500.0	45210.176239	6.850026702878787	0.15	4	75.0	0	0	;
	201	199	500.0	104596.142578	15.84790039060606	0.15	4	75.0	0	0	;
	201	403	500.0	49539.729309	8.042163848863638	0.15	4	70.0	0	0	;
	202	203	500.0	182312.451782	29.59617723733766	0.15	4	70.0	0	0	;
	202	205	1000.0	142414.899902	21.578015136666668	0.15	4	75.0	0	0	;
	202	514	1000.0	6567.454319	2.1322903633116885	0.15	4	35.0	0	0	;
	203	202	500.0	182312.451782	29.59617723733766	0.15	4	70.0	0	0	;
	203	456	500.0	30044.167099	4.877299853733766	0.15	4	70.0	0	0	;
	204	207	1500.0	39398.082962	6.887776741608392	0.15	4	65.0	0	0	;
	204	455	750.0	16318.026924	3.090535402272727	0.15	4	60.0	0	0	;
	204	456	1000.0	27513.173447	6.9477710724747475	0.15	4	45.0	0	0	;
	205	202	1000.0	142414.899902	21.578015136666668	0.15	4	75.0	0	0	;
	205	266	1000.0	62902.201538	10.996888380769231	0.15	4	65.0	0	0	;
	206	266	500.0	1659.941297	0.2901995274475525	0.15	4	65.0	0	0	;
	207	204	1500.0	39398.082962	6.887776741608392	0.15	4	65.0	0	0	;
	208	1	90000.0	10.0	0.0016233766233766235	0.15	4	70.0	0	0	;
	208	476	1000.0	162458.35144	33.56577509090909	0.15	4	55.0	0	0	;
	209	196	500.0	5217.197857	0.7904845237878787	0.15	4	75.0	0	0	;
	209	265	500.0	4168.025923	0.6315190792424242	0.15	4	75.0	0	0	;
	210	167	500.0	93656.302185	14.19034881590909	0.15	4	75.0	0	0	;
	210	343	500.0	173387.365723	28.14729963035714	0.15	4	70.0	0	0	;
	210	381	500.0	80981.534729	12.26992950439394	0.15	4	75.0	0	0	;
	211	343	500.0	166919.665833	27.097348349512988	0.15	4	70.0	0	0	;
	211	530	500.0	3774.170437	0.6126900060064935	0.15	4	70.0	0	0	;
	212	217	1000.0	78830.638275	11.944036102272728	0.15	4	75.0	0	0	;
	212	338	1000.0	123835.108337	18.762895202575756	0.15	4	75.0	0	0	;
	212	531	1000.0	10829.089279	2.461156654318182	0.15	4	50.0	0	0	;
	213	215	500.0	315.508255	0.05121887256493507	0.15	4	70.0	0	0	;
	214	185	500.0	6697.000694	1.0871754373376623	0.15	4	70.0	0	0	;
	214	341	500.0	98128.926086	15.930020468506495	0.15	4	70.0	0	0	;
	214	478	500.0	108718.181763	17.649055481006492	0.15	4	70.0	0	0	;
	215	213	500.0	315.508255	0.05121887256493507	0.15	4	70.0	0	0	;
	215	337	500.0	3902.894154	0.6335867133116884	0.15	4	70.0	0	0	;
	215	491	1000.0	155164.040222	23.509703063939394	0.15	4	75.0	0	0	;
	216	219	500.0	75.776344	0.011481264242424242	0.15	4	75.0	0	0	;
	217	184	1500.0	53828.077698	9.410503094055944	0.15	4	65.0	0	0	;
	217	212	1000.0	78830.638275	11.944036102272728	0.15	4	75.0	0	0	;
	217	338	1000.0	67953.367767	10.295964813181818	0.15	4	75.0	0	0	;
	218	98	500.0	15836.28891	3.271960518595041	0.15	4	55.0	0	0	;
	218	219	500.0	180895.731812	27.408444213939394	0.15	4	75.0	0	0	;
	218	335	500.0	12237.218857	1.8541240692424241	0.15	4	75.0	0	0	;
	218	366	500.0	123320.037231	18.68485412590909	0.15	4	75.0	0	0	;
	219	216	500.0	75.776344	0.011481264242424242	0.15	4	75.0	0	0	;
	219	218	500.0	180895.731812	27.408444213939394	0.15	4	75.0	0	0	;
	219	395	500.0	138687.696533	21.013287353484852	0.15	4	75.0	0	0	;
	220	1	90000.0	10.0	0.0016233766233766235	0.15	4	70.0	0	0	;
	220	427	1000.0	43383.876801	7.04283714301948	0.15	4	70.0	0	0	;
	221	270	1000.0	125299.3927	21.905488234265736	0.15	4	65.0	0	0	;
	221	307	1000.0	9677.278576	1.570986781818182	0.15	4	70.0	0	0	;
	221	309	1000.0	46745.364075	7.588533129058442	0.15	4	70.0	0	0	;
	222	310	1000.0	50491.767426	7.650267791818182	0.15	4	75.0	0	0	;
	222	361	1000.0	124861.886902	18.918467712424242	0.15	4	75.0	0	0	;
	222	413	500.0	3126.882935	0.4737701416666667	0.15	4	75.0	0	0	;
	223	361	500.0	4593.310804	1.7398904560606059	0.15	4	30.0	0	0	;
	224	1	90000.0	10.0	0.0016233766233766235	0.15	4	70.0	0	0	;
	224	40	500.0	74324.50882	14.076611518939394	0.15	4	60.0	0	0	;
	224	394	1000.0	31718.961411	8.009838740151515	0.15	4	45.0	0	0	;
	225	146	500.0	21163.704758	4.0082774162878785	0.15	4	60.0	0	0	;
	225	400	500.0	14073.871078	2.9078246028925623	0.15	4	55.0	0	0	;
	225	478	1000.0	130005.044861	22.728154695979022	0.15	4	65.0	0	0	;
	226	227	1000.0	122.844277	0.01994225275974026	0.15	4	70.0	0	0	;
	226	228	1000.0	112121.961365	18.20161710470779	0.15	4	70.0	0	0	;