<NUMBER OF ZONES> 110
<NUMBER OF NODES> 550
<NUMBER OF LINKS> 1411
<END OF METADATA>

~ From To Capacity   Length (ft)  u_f (mph)  k_j (veh/mi)
  2  361  360000  62296.855774  50  480 ;
  3  362  360000  22417.433853  50  720 ;
  3  363  360000  35648.439331  50  240 ;
  4  364  360000  14152.711601  50  480 ;
  4  365  360000  78040.85083  50  240 ;
  5  366  360000  29969.852142  50  480 ;
  5  367  360000  9380.451164  50  240 ;
  6  195  360000  130730.152588  50  240 ;
  6  368  360000  35243.749237  50  240 ;
  7  281  360000  22024.942017  50  240 ;
  7  369  360000  6127.885265  50  240 ;
  8  370  360000  54059.247894  50  240 ;
  8  371  360000  57100.609589  50  240 ;
  9  262  360000  24945.310593  50  480 ;
  9  372  360000  13143.393288  50  240 ;
  10  373  360000  113887.423096  50  240 ;
  11  374  360000  70551.800537  50  240 ;
  12  375  360000  740.195439  50  240 ;
  12  376  360000  12105.694199  50  240 ;
  13  306  360000  115214.150391  50  240 ;
  13  377  360000  11132.532578  50  480 ;
  14  280  360000  41216.242676  50  480 ;
  15  113  360000  8681.9977  50  480 ;
  15  251  360000  18421.846161  50  360 ;
  16  378  360000  52049.649811  50  480 ;
  16  379  360000  913.690002  50  240 ;
  17  380  360000  39455.949783  50  240 ;
  17  381  360000  2648.859787  50  240 ;
  18  382  360000  28355.286255  50  240 ;
  18  383  360000  23623.477707  50  240 ;
  19  384  360000  10859.594994  50  240 ;
  19  385  360000  8573.594341  50  240 ;
  20  386  360000  6583.551865  50  480 ;
  20  387  360000  20948.047371  50  240 ;
  21  388  360000  18760.734901  50  120 ;
  22  329  360000  109724.023132  50  240 ;
  22  389  360000  1227.697728  50  240 ;
  23  390  360000  155312.836304  50  240 ;
  24  391  360000  121440.201416  50  480 ;
  24  392  360000  6630.200443  50  360 ;
  25  182  360000  73759.229736  50  480 ;
  25  185  360000  54966.002655  50  480 ;
  25  186  360000  48001.978455  50  480 ;
  26  305  360000  16287.322311  50  240 ;
  26  393  360000  2550.005593  50  240 ;
  27  394  360000  105512.817078  50  480 ;
  28  276  360000  59317.590637  50  360 ;
  28  395  360000  14288.377876  50  240 ;
  29  396  360000  87211.452942  50  240 ;
  29  397  360000  61539.380493  50  240 ;
  30  229  360000  34208.823395  50  240 ;
  30  398  360000  29364.118652  50  240 ;
  31  399  360000  119655.242615  50  240 ;
  31  400  360000  11560.053177  50  240 ;
  32  401  360000  36554.881897  50  240 ;
  32  402  360000  11148.514938  50  240 ;
  33  201  360000  45210.176239  50  240 ;
  33  403  360000  6310.31908  50  240 ;
  34  404  360000  58943.364716  50  240 ;
  35  176  360000  68542.716064  50  480 ;
  35  405  360000  24728.48877  50  480 ;
  36  198  360000  66476.666107  50  480 ;
  36  200  360000  68902.39975  50  480 ;
  37  406  360000  65411.240845  50  480 ;
  37  407  360000  92401.188354  50  240 ;
  38  408  360000  15678.56884  50  480 ;
  38  409  360000  57578.816528  50  480 ;
  39  404  360000  40341.608734  50  240 ;
  39  410  360000  12649.109573  50  240 ;
  40  224  360000  74324.50882  50  240 ;
  40  289  360000  105513.85437  50  480 ;
  41  411  360000  105218.236084  50  480 ;
  42  412  360000  15018.631783  50  480 ;
  42  413  360000  6408.100891  50  240 ;
  43  414  360000  12039.970894  50  240 ;
  43  415  360000  156955.343628  50  240 ;
  44  416  360000  21078.063927  50  240 ;
  44  417  360000  158229.118652  50  240 ;
  45  163  360000  94122.137146  50  240 ;
  45  418  360000  3773.541012  50  240 ;
  46  419  360000  5553.526726  50  480 ;
  46  420  360000  100168.686218  50  240 ;
  47  421  360000  4096.014977  50  480 ;
  48  351  360000  122796.315308  50  240 ;
  48  422  360000  26894.788513  50  480 ;
  49  183  360000  59575.96656  50  240 ;
  49  303  360000  50823.173279999995  50  240 ;
  49  423  360000  29605.452805  50  720 ;
  49  424  360000  2375.151157  50  480 ;
  49  536  360000  16438.75728  50  240 ;
  50  296  360000  9649.433441  50  240 ;
  50  425  360000  21063.901863  50  480 ;
  51  426  360000  1813.829112  50  480 ;
  51  427  360000  98250.228882  50  240 ;
  52  428  360000  131814.093018  50  240 ;
  52  429  360000  279.647176  50  240 ;
  53  430  360000  4765.33267  50  480 ;
  54  431  360000  7380.172348  50  240 ;
  54  432  360000  138464.336243  50  240 ;
  55  433  360000  1506.742859  50  480 ;
  55  434  360000  2857.765646  50  240 ;
  56  237  360000  52208.637543  50  480 ;
  56  435  360000  17103.185577  50  480 ;
  57  324  360000  147003.962402  50  240 ;
  57  436  360000  46666.806793  50  240 ;
  58  437  360000  40610.343018  50  240 ;
  59  438  360000  2378.034554  50  240 ;
  59  439  360000  104978.540955  50  240 ;
  60  369  360000  112032.160034  50  240 ;
  60  440  360000  58235.332031  50  240 ;
  61  129  360000  151204.755249  50  240 ;
  61  441  360000  7290.626564  50  360 ;
  62  442  360000  25119.897995  50  240 ;
  62  443  360000  120482.276917  50  240 ;
  63  444  360000  132083.597717  50  240 ;
  63  445  360000  115688.706665  50  240 ;
  64  446  360000  14529.651604  50  240 ;
  64  447  360000  38555.683136  50  240 ;
  65  448  360000  2674.846544  50  480 ;
  65  449  360000  45563.9534  50  480 ;
  66  321  360000  56443.731537  50  480 ;
  66  450  360000  3025.592709  50  240 ;
  67  451  360000  29782.834854  50  240 ;
  67  532  360000  101690.535278  50  240 ;
  68  421  360000  138294.210205  50  480 ;
  68  452  360000  10970.37632  50  240 ;
  69  453  360000  117536.295776  50  240 ;
  69  454  360000  39418.695374  50  240 ;
  70  455  360000  13306.711464  50  480 ;
  70  456  360000  8420.610695  50  240 ;
  71  410  360000  61948.038483  50  480 ;
  71  457  360000  4731.753788  50  480 ;
  72  458  360000  6558.228207  50  240 ;
  72  459  360000  7095.173721  50  240 ;
  73  435  360000  90349.786377  50  480 ;
  73  460  360000  2362.14519  50  480 ;
  74  240  360000  35116.268005  50  240 ;
  74  461  360000  23138.070145  50  240 ;
  75  462  360000  26034.389648  50  240 ;
  75  463  360000  62371.933594  50  240 ;
  76  243  360000  22298.726807  50  240 ;
  76  464  360000  114130.149536  50  480 ;
  77  286  360000  64820.658875  50  240 ;
  77  465  360000  28105.52536  50  240 ;
  78  466  360000  110487.430115  50  240 ;
  78  467  360000  6055.641117  50  240 ;
  79  291  360000  1532.808924  50  240 ;
  79  468  360000  120817.533875  50  240 ;
  80  469  360000  133880.873108  50  240 ;
  80  470  360000  110136.895752  50  240 ;
  81  471  360000  109759.774475  50  240 ;
  81  472  360000  74166.034698  50  240 ;
  82  473  360000  59872.693176  50  240 ;
  83  474  360000  24530.982742  50  240 ;
  83  475  360000  1746.571584  50  240 ;
  84  282  360000  157236.208191  50  240 ;
  84  476  360000  3924.665022  50  240 ;
  85  477  360000  32277.457809  50  240 ;
  85  478  360000  23695.003052  50  240 ;
  86  479  360000  78939.025269  50  240 ;
  86  480  360000  70357.172241  50  240 ;
  87  436  360000  38342.919846  50  720 ;
  88  481  360000  54569.278564  50  240 ;
  88  482  360000  123432.377014  50  240 ;
  89  483  360000  90081.913147  50  240 ;
  89  484  360000  48822.658081  50  240 ;
  90  246  360000  27543.791199  50  480 ;
  90  485  360000  288.409029  50  240 ;
  91  470  360000  145048.484802  50  240 ;
  91  486  360000  5458.307934  50  240 ;
  92  487  360000  140034.152527  50  240 ;
  92  488  360000  150643.408813  50  240 ;
  93  489  360000  103887.50061  50  240 ;
  93  490  360000  112242.12616  50  480 ;
  94  491  360000  2204.023075  50  240 ;
  94  492  360000  82649.143524  50  240 ;
  95  392  360000  120799.688416  50  240 ;
  95  493  360000  8805.281925  50  240 ;
  96  494  360000  38990.416946  50  480 ;
  96  495  360000  16537.28714  50  480 ;
  97  496  360000  9499.522648  50  240 ;
  97  497  360000  65929.816589  50  360 ;
  98  218  360000  15836.28891  50  240 ;
  98  498  360000  2836.531363  50  240 ;
  99  410  360000  91306.885071  50  480 ;
  99  499  360000  10092.208157  50  480 ;
  100  500  360000  325.696464  50  480 ;
  100  501  360000  58938.394775  50  240 ;
  101  502  360000  4004.855661  50  240 ;
  101  503  360000  49615.496979  50  240 ;
  102  504  360000  1920.209184  50  240 ;
  102  505  360000  66323.237457  50  240 ;
  103  389  360000  33070.744858  50  240 ;
  103  506  360000  15761.452789  50  240 ;
  104  507  360000  926.503286  50  480 ;
  104  508  360000  4784.646263  50  480 ;
  105  509  360000  95321.972351  50  240 ;
  105  510  360000  10427.968655  50  480 ;
  106  189  360000  86625.765381  50  240 ;
  106  511  360000  8086.310463  50  480 ;
  107  512  360000  11028.429451  50  480 ;
  107  513  360000  104979.094849  50  240 ;
  108  514  360000  5311.345997  50  480 ;
  108  515  360000  5002.457857  50  240 ;
  109  516  360000  47302.420349  50  240 ;
  110  180  360000  42595.317993  50  240 ;
  110  289  360000  13735.930252  50  360 ;
  111  485  4000  4591.933622  55  480 ;
  111  526  4000  2542.114806  50  480 ;
  112  1  360000  10.0  70  40000 ;
  112  113  4000  70943.031006  70  480 ;
  113  15  4000  8681.9977  45  480 ;
  113  112  4000  70943.031006  70  480 ;
  113  251  4000  16231.800728  55  480 ;
  114  115  2000  107112.755127  65  240 ;
  114  125  2000  36602.546997  60  240 ;
  114  126  2000  2417.756467  55  240 ;
  115  114  2000  107112.755127  65  240 ;
  115  140  4000  127399.295654  60  480 ;
  116  118  6000  2174.581246  65  720 ;
  117  248  3000  1407.564039  55  360 ;
  118  116  6000  2174.581246  65  720 ;
  118  248  14000  16016.729965  65  1680 ;
  118  301  4000  83290.623322  65  480 ;
  119  239  4000  881.930158  65  480 ;
  119  240  4000  2704.172401  65  480 ;
  120  130  4000  9470.034714  70  480 ;
  120  322  4000  49504.234772  70  480 ;
  120  391  2000  63013.222046  70  240 ;
  121  323  2000  41315.490417  75  240 ;
  121  391  3000  3622.512989  55  360 ;
  121  392  2000  141586.687317  75  240 ;
  122  123  4000  82714.387207  70  480 ;
  122  124  4000  28123.861771  55  480 ;
  123  122  4000  82714.387207  70  480 ;
  123  304  2000  329.855409  45  240 ;
  123  305  6000  9490.156174  40  720 ;
  124  122  4000  28123.861771  55  480 ;
  124  495  4000  3875.247602  75  480 ;
  124  528  4000  94995.335999  75  480 ;
  125  114  2000  36602.546997  60  240 ;
  125  171  4000  29966.035309  65  480 ;
  125  397  4000  72380.844269  75  480 ;
  126  114  2000  2417.756467  55  240 ;
  127  350  4000  503.006798  65  480 ;
  128  139  6000  46463.457184  65  720 ;
  129  61  2000  151204.755249  70  240 ;
  129  458  4000  7576.979084  55  480 ;
  130  120  4000  9470.034714  70  480 ;
  130  352  2000  115930.436096  70  240 ;
  130  458  2000  112019.803162  70  240 ;
  131  132  4000  39335.578537  55  480 ;
  131  134  6000  32047.445755  50  720 ;
  131  135  6000  2047.335262  55  720 ;
  132  131  4000  39335.578537  55  480 ;
  133  294  6000  4213.141222  55  720 ;
  134  131  6000  32047.445755  50  720 ;
  134  467  4000  39709.809494  65  480 ;
  135  131  6000  2047.335262  55  720 ;
  136  522  4000  482.886479  60  480 ;
  137  144  4000  7898.189163  30  480 ;
  138  167  2000  18104.999886  75  240 ;
  138  265  2000  193152.138062  75  240 ;
  138  403  2000  65339.632416  70  240 ;
  139  128  6000  46463.457184  65  720 ;
  139  140  6000  26492.21077  55  720 ;
  139  350  6000  34698.732605  65  720 ;
  140  115  4000  127399.295654  60  480 ;
  140  139  6000  26492.21077  55  720 ;
  140  351  6000  29047.711716  60  720 ;
  141  341  2000  1077.279775  75  240 ;
  142  342  4000  45.399652  70  480 ;
  143  260  2000  293798.35144  45  240 ;
  143  523  4000  7055.392799  40  480 ;
  144  137  4000  7898.189163  30  480 ;
  144  160  4000  20667.323799  35  480 ;
  144  523  6000  109194.822693  65  720 ;
  145  335  4000  500.933236  35  480 ;
  146  225  2000  21163.704758  60  240 ;
  146  491  2000  154762.094421  55  240 ;
  146  498  2000  160078.862915  70  240 ;
  147  148  6000  24145.643692  75  720 ;
  148  147  6000  24145.643692  75  720 ;
  148  353  4000  116321.253662  75  480 ;
  148  431  2000  25836.931458  65  240 ;
  148  484  4000  93166.669922  75  480 ;
  149  290  2000  853.843639  65  240 ;
  150  346  4000  541.626863  55  480 ;
  151  432  2000  240878.388062  70  240 ;
  151  473  4000  55122.855377  70  480 ;
  152  230  2000  31474.361801  55  240 ;
  152  432  4000  16710.667305  55  480 ;
  152  527  3000  58866.655426  70  360 ;
  153  293  2000  131187.648926  70  240 ;
  153  317  2000  18835.637741  60  240 ;
  153  318  3000  12914.428596  55  360 ;
  154  155  2000  87564.927979  65  240 ;
  155  154  2000  87564.927979  65  240 ;
  155  286  4000  44056.641541  75  480 ;
  155  330  4000  45153.054657  75  480 ;
  156  507  4000  116288.432922  55  480 ;
  157  158  2000  64172.35611  60  240 ;
  157  377  2000  174505.204468  75  240 ;
  157  414  2000  51087.329407  55  240 ;
  158  157  2000  64172.35611  60  240 ;
  158  521  2000  10763.561096  65  240 ;
  159  349  4000  252.819035  60  480 ;
  160  144  4000  20667.323799  35  480 ;
  160  511  2000  61872.4823  55  240 ;
  160  522  4000  101053.647766  65  480 ;
  161  189  4000  40862.913666  55  480 ;
  161  511  2000  59223.710632  55  240 ;
  161  522  6000  17653.011017  70  720 ;
  162  533  2000  411.920103  55  240 ;
  163  45  2000  94122.137146  45  240 ;
  163  189  4000  24738.834  70  480 ;
  163  193  4000  91686.665039  75  480 ;
  163  533  2000  146927.09198  55  240 ;
  164  1  360000  10.0  70  40000 ;
  164  267  4000  2144.442959  75  480 ;
  164  481  4000  129055.881958  75  480 ;
  164  482  2000  40772.344437  70  240 ;
  165  167  2000  15770.569382  65  240 ;
  165  482  2000  192141.049805  70  240 ;
  165  504  2000  178451.387329  75  240 ;
  166  1  360000  10.0  70  40000 ;
  166  504  2000  124878.302307  75  240 ;
  167  138  2000  18104.999886  75  240 ;
  167  165  2000  15770.569382  65  240 ;
  167  210  2000  93656.302185  75  240 ;
  167  339  2000  173533.7146  75  240 ;
  168  169  2000  26659.172058  75  240 ;
  168  242  4000  61622.887573  65  480 ;
  169  168  2000  26659.172058  75  240 ;
  169  244  2000  57780.700836  65  240 ;
  170  349  8000  45307.324219  65  960 ;
  170  534  8000  26940.041656  65  960 ;
  171  125  4000  29966.035309  65  480 ;
  171  513  6000  47440.163727  65  720 ;
  172  322  4000  11200.142899  55  480 ;
  172  510  4000  8595.801716  65  480 ;
  173  321  2000  121870.506592  60  240 ;
  173  323  4000  24702.261887  55  480 ;
  174  175  4000  20155.698166  55  480 ;
  174  356  6000  83693.61145  55  720 ;
  175  174  4000  20155.698166  55  480 ;
  175  382  8000  6162.075005  65  960 ;
  176  35  4000  68542.716064  55  480 ;
  176  302  6000  54391.468506  65  720 ;
  176  347  4000  80563.994293  65  480 ;
  176  548  10000  855.117517  65  1200 ;
  177  355  6000  172206.604614  65  720 ;
  178  1  360000  10.0  70  40000 ;
  178  436  6000  110768.757935  70  720 ;
  179  287  4000  20946.721802  65  480 ;
  179  407  4000  26883.368225  75  480 ;
  180  1  360000  10.0  70  40000 ;
  180  110  2000  42595.317993  55  240 ;
  180  449  4000  246517.895508  65  480 ;
  181  405  4000  14364.037285  70  480 ;
  182  1  360000  10.0  70  40000 ;
  182  25  4000  73759.229736  50  480 ;
  182  334  4000  119530.656738  75  480 ;
  183  348  10000  776.289816  60  1200 ;
  184  217  6000  53828.077698  65  720 ;
  184  530  6000  77345.532532  75  720 ;
  185  1  360000  10.0  70  40000 ;
  185  25  4000  54966.002655  50  480 ;
  185  214  2000  6697.000694  70  240 ;
  186  1  360000  10.0  70  40000 ;
  186  25  4000  48001.978455  55  480 ;
  186  342  2000  114627.697449  70  240 ;
  187  261  2000  162033.162231  75  240 ;
  187  341  2000  53686.50238  75  240 ;
  187  342  2000  46693.952637  70  240 ;
  188  260  6000  83707.277527  65  720 ;
  188  480  4000  141853.331909  65  480 ;
  189  106  2000  86625.765381  50  240 ;
  189  161  4000  40862.913666  55  480 ;
  189  163  4000  24738.834  70  480 ;
  189  260  6000  161325.920105  65  720 ;
  190  195  2000  156226.95282  70  240 ;
  190  519  2000  153.626525  75  240 ;
  191  488  2000  251.97889  75  240 ;
  192  523  2000  12422.045746  60  240 ;
  193  163  4000  91686.665039  75  480 ;
  193  418  2000  55303.888092  75  240 ;
  193  519  2000  124082.004089  75  240 ;
  194  1  360000  10.0  70  40000 ;
  194  264  4000  11977.525635  35  480 ;
  195  6  2000  130730.152588  45  240 ;
  195  190  2000  156226.95282  70  240 ;
  196  209  2000  5217.197857  75  240 ;
  196  368  2000  101182.997131  75  240 ;
  196  518  2000  177726.329956  75  240 ;
  197  479  2000  13644.121056  45  240 ;
  198  36  4000  66476.666107  75  480 ;
  198  487  2000  20033.543129  60  240 ;
  199  200  2000  80458.663788  75  240 ;
  199  201  2000  104596.142578  75  240 ;
  199  515  4000  65127.888794  75  480 ;
  199  518  4000  118737.11792  75  480 ;
  200  36  4000  68902.39975  50  480 ;
  200  199  2000  80458.663788  75  240 ;
  201  33  2000  45210.176239  75  240 ;
  201  199  2000  104596.142578  75  240 ;
  201  403  2000  49539.729309  70  240 ;
  202  203  2000  182312.451782  70  240 ;
  202  205  4000  142414.899902  75  480 ;
  202  514  4000  6567.454319  35  480 ;
  203  202  2000  182312.451782  70  240 ;
  203  456  2000  30044.167099  70  240 ;
  204  207  6000  39398.082962  65  720 ;
  204  455  3000  16318.026924  60  360 ;
  204  456  4000  27513.173447  45  480 ;
  205  202  4000  142414.899902  75  480 ;
  205  266  4000  62902.201538  65  480 ;
  206  266  2000  1659.941297  65  240 ;
  207  204  6000  39398.082962  65  720 ;
  208  1  360000  10.0  70  40000 ;
  208  476  4000  162458.35144  55  480 ;
  209  196  2000  5217.197857  75  240 ;
  209  265  2000  4168.025923  75  240 ;
  210  167  2000  93656.302185  75  240 ;
  210  343  2000  173387.365723  70  240 ;
  210  381  2000  80981.534729  75  240 ;
  211  343  2000  166919.665833  70  240 ;
  211  530  2000  3774.170437  70  240 ;
  212  217  4000  78830.638275  75  480 ;
  212  338  4000  123835.108337  75  480 ;
  212  531  4000  10829.089279  50  480 ;
  213  215  2000  315.508255  70  240 ;
  214  185  2000  6697.000694  70  240 ;
  214  341  2000  98128.926086  70  240 ;
  214  478  2000  108718.181763  70  240 ;
  215  213  2000  315.508255  70  240 ;
  215  337  2000  3902.894154  70  240 ;
  215  491  4000  155164.040222  75  480 ;
  216  219  2000  75.776344  75  240 ;
  217  184  6000  53828.077698  65  720 ;
  217  212  4000  78830.638275  75  480 ;
  217  338  4000  67953.367767  75  480 ;
  218  98  2000  15836.28891  55  240 ;
  218  219  2000  180895.731812  75  240 ;
  218  335  2000  12237.218857  75  240 ;
  218  366  2000  123320.037231  75  240 ;
  219  216  2000  75.776344  75  240 ;
  219  218  2000  180895.731812  75  240 ;
  219  395  2000  138687.696533  75  240 ;
  220  1  360000  10.0  70  40000 ;
  220  427  4000  43383.876801  70  480 ;
  221  270  4000  125299.3927  65  480 ;
  221  307  4000  9677.278576  70  480 ;
  221  309  4000  46745.364075  70  480 ;
  222  310  4000  50491.767426  75  480 ;
  222  361  4000  124861.886902  75  480 ;
  222  413  2000  3126.882935  75  240 ;
  223  361  2000  4593.310804  30  240 ;
  224  1  360000  10.0  70  40000 ;
  224  40  2000  74324.50882  60  240 ;
  224  394  4000  31718.961411  45  480 ;
  225  146  2000  21163.704758  60  240 ;
  225  400  2000  14073.871078  55  240 ;
  225  478  4000  130005.044861  65  480 ;
  226  227  4000  122.844277  70  480 ;
  226  228  4000  112121.961365  70  480 ;
  226  346  4000  21654.233322  70  480 ;
  227  226  4000  122.844277  70  480 ;
  227  429  4000  118706.663818  70  480 ;
  228  226  4000  112121.961365  70  480 ;
  228  398  2000  9460.67831  55  240 ;
  229  30  2000  34208.823395  75  240 ;
  229  398  2000  17416.282997  75  240 ;
  229  431  2000  138061.343079  75  240 ;
  230  152  2000  31474.361801  55  240 ;
  230  278  2000  29831.32576  65  240 ;
  231  278  2000  326.988103  65  240 ;
  232  527  3000  312.281823  70  360 ;
  233  279  4000  272433.308716  60  480 ;
  234  362  4000  39746.565399  65  480 ;
  234  363  4000  1436.441274  45  480 ;
  235  329  2000  88157.685242  75  240 ;
  235  434  2000  13538.193855  55  240 ;
  236  248  4000  52143.479462  75  480 ;
  236  286  4000  34701.174774  75  480 ;
  236  465  2000  67528.470612  65  240 ;
  237  56  4000  52208.637543  75  480 ;
  237  312  2000  238015.823364  65  240 ;
  237  517  2000  12175.788231  55  240 ;
  238  422  4000  3560.322647  50  480 ;
  239  119  4000  881.930158  65  480 ;
  239  242  4000  55404.822693  65  480 ;
  239  461  2000  39859.544678  50  240 ;
  240  74  2000  35116.268005  40  240 ;
  240  119  4000  2704.172401  65  480 ;
  240  241  2000  123384.006958  60  240 ;
  241  240  2000  123384.006958  60  240 ;
  242  168  4000  61622.887573  65  480 ;
  242  239  4000  55404.822693  65  480 ;
  242  243  2000  113109.463806  60  240 ;
  243  76  2000  22298.726807  60  240 ;
  243  242  2000  113109.463806  60  240 ;
  244  169  2000  57780.700836  65  240 ;
  244  245  2000  103940.533447  65  240 ;
  245  244  2000  103940.533447  65  240 ;
  246  90  4000  27543.791199  35  480 ;
  246  525  6000  481.484946  45  720 ;
  247  328  4000  80239.246216  75  480 ;
  247  358  4000  21897.417984  75  480 ;
  247  450  4000  238265.2771  75  480 ;
  248  117  3000  1407.564039  55  360 ;
  248  118  14000  16016.729965  65  1680 ;
  248  236  4000  52143.479462  75  480 ;
  249  1  360000  10.0  70  40000 ;
  249  471  2000  6614.243889  55  240 ;
  250  501  4000  102292.890015  55  480 ;
  251  15  3000  18421.846161  30  360 ;
  251  113  4000  16231.800728  55  480 ;
  251  373  4000  6953.770237  60  480 ;
  252  494  4000  7134.512157  55  480 ;
  252  500  4000  72883.271484  70  480 ;
  253  494  2000  9465.338573  55  240 ;
  253  528  4000  64038.923035  75  480 ;
  254  526  4000  214.368049  55  480 ;
  255  1  360000  10.0  70  40000 ;
  255  402  4000  112027.467041  70  480 ;
  256  1  360000  10.0  70  40000 ;
  256  374  6000  93313.774109  70  720 ;
  257  313  4000  99640.321655  75  480 ;
  258  438  4000  143952.05658  75  480 ;
  258  445  4000  687.255049  75  480 ;
  258  524  4000  36589.115067  60  480 ;
  259  524  4000  829.360499  45  480 ;
  260  143  2000  293798.35144  45  240 ;
  260  188  6000  83707.277527  65  720 ;
  260  189  6000  161325.920105  65  720 ;
  260  372  3000  70723.573151  75  360 ;
  260  533  2000  36597.242203  75  240 ;
  261  187  2000  162033.162231  75  240 ;
  261  283  4000  25439.255676  70  480 ;
  261  474  4000  67153.74115  75  480 ;
  262  9  4000  24945.310593  75  480 ;
  262  372  4000  21465.088577  75  480 ;
  262  519  4000  39375.164337  75  480 ;
  262  533  2000  55591.530304  75  240 ;
  263  518  4000  533.88167  30  480 ;
  264  194  4000  11977.525635  35  480 ;
  264  505  4000  77906.662445  65  480 ;
  264  516  2000  244002.491455  75  240 ;
  265  138  2000  193152.138062  75  240 ;
  265  209  2000  4168.025923  75  240 ;
  265  505  2000  202374.776001  75  240 ;
  266  205  4000  62902.201538  65  480 ;
  266  206  2000  1659.941297  65  240 ;
  266  455  6000  17793.181458  65  720 ;
  267  1  360000  10.0  70  40000 ;
  267  164  4000  2144.442959  75  480 ;
  268  1  360000  10.0  70  40000 ;
  268  411  4000  95091.089172  75  480 ;
  269  270  2000  16737.11071  70  240 ;
  269  375  2000  13536.038704  55  240 ;
  269  376  2000  283.112968  55  240 ;
  270  221  4000  125299.3927  65  480 ;
  270  269  2000  16737.11071  70  240 ;
  270  345  3000  81240.757141  70  360 ;
  271  408  4000  72505.36972  55  480 ;
  271  468  4000  18098.981323  85  480 ;
  272  408  4000  61444.543762  65  480 ;
  272  409  4000  1805.40772  35  480 ;
  273  289  8000  22385.929871  70  960 ;
  273  290  4000  96842.774048  70  480 ;
  273  468  4000  49088.023682  65  480 ;
  274  336  4000  2331.932631  45  480 ;
  275  502  4000  52535.52063  75  480 ;
  275  503  4000  17030.270462  75  480 ;
  275  530  4000  13849.977036  75  480 ;
  276  28  3000  59317.590637  40  360 ;
  276  338  2000  7473.173676  60  240 ;
  277  437  4000  202461.989136  65  480 ;
  277  448  4000  135820.39856  75  480 ;
  277  454  2000  20444.669724  70  240 ;
  278  230  2000  29831.32576  65  240 ;
  278  231  2000  326.988103  65  240 ;
  278  383  4000  44134.760742  60  480 ;
  279  233  4000  272433.308716  60  480 ;
  279  383  2000  3782.043285  60  240 ;
  280  1  360000  10.0  70  40000 ;
  280  14  4000  41216.242676  40  480 ;
  280  470  2000  52618.816223  75  240 ;
  281  7  2000  22024.942017  70  240 ;
  281  326  4000  102373.124084  70  480 ;
  281  369  4000  20770.774841  75  480 ;
  282  84  2000  157236.208191  70  240 ;
  282  340  2000  113.821498  75  240 ;
  283  261  4000  25439.255676  70  480 ;
  283  380  2000  118779.213867  65  240 ;
  283  475  2000  45190.875549  70  240 ;
  284  466  4000  128924.387512  65  480 ;
  285  521  2000  361.905988  60  240 ;
  286  77  2000  64820.658875  65  240 ;
  286  155  4000  44056.641541  75  480 ;
  286  236  4000  34701.174774  75  480 ;
  286  521  2000  205713.911133  70  240 ;
  287  1  360000  10.0  70  40000 ;
  287  179  4000  20946.721802  65  480 ;
  288  1  360000  10.0  70  40000 ;
  288  437  4000  36584.60083  60  480 ;
  289  1  360000  10.0  70  40000 ;
  289  40  4000  105513.85437  55  480 ;
  289  110  3000  13735.930252  65  360 ;
  289  273  8000  22385.929871  70  960 ;
  290  149  2000  853.843639  65  240 ;
  290  273  4000  96842.774048  70  480 ;
  290  291  2000  34669.763947  65  240 ;
  291  79  2000  1532.808924  55  240 ;
  291  290  2000  34669.763947  65  240 ;
  291  384  4000  151740.00824  75  480 ;
  292  333  4000  123172.963257  75  480 ;
  293  153  2000  131187.648926  70  240 ;
  293  327  4000  89589.360352  75  480 ;
  293  393  4000  70868.522186  60  480 ;
  294  133  6000  4213.141222  55  720 ;
  294  356  4000  42906.369781  65  480 ;
  294  539  12000  52212.374803  50  1440 ;
  294  542  14000  58527.697449  50  1680 ;
  295  355  12000  45506.771393  45  1440 ;
  295  464  4000  41042.40312  65  480 ;
  295  544  12000  17867.414589  50  1440 ;
  296  50  2000  9649.433441  55  240 ;
  296  328  4000  18835.489197  55  480 ;
  296  329  2000  166726.669006  70  240 ;
  297  371  2000  53352.322998  75  240 ;
  298  299  4000  9056.934872  45  480 ;
  298  371  4000  6014.455318  45  480 ;
  299  298  4000  9056.934872  45  480 ;
  299  370  4000  701.14465  65  480 ;
  300  301  2000  15120.912094  65  240 ;
  300  370  2000  1012.609971  65  240 ;
  301  118  4000  83290.623322  65  480 ;
  301  300  2000  15120.912094  65  240 ;
  302  176  6000  54391.468506  65  720 ;
  303  331  6000  1408.628372  65  720 ;
  304  123  2000  329.855409  45  240 ;
  305  26  2000  16287.322311  70  240 ;
  305  123  6000  9490.156174  40  720 ;
  305  393  4000  16141.070366  70  480 ;
  306  13  2000  115214.150391  75  240 ;
  306  359  2000  493.958302  50  240 ;
  307  221  4000  9677.278576  70  480 ;
  307  412  4000  24851.277008  55  480 ;
  307  428  4000  37306.010056  75  480 ;
  308  412  4000  5071.920261  55  480 ;
  308  413  4000  15110.237045  75  480 ;
  309  221  4000  46745.364075  70  480 ;
  310  222  4000  50491.767426  75  480 ;
  311  319  4000  44846.98288  75  480 ;
  311  532  2000  24579.818573  55  240 ;
  312  237  2000  238015.823364  65  240 ;
  312  386  4000  1221.623383  55  480 ;
  312  460  4000  91012.948608  70  480 ;
  313  257  4000  99640.321655  75  480 ;
  313  315  2000  114164.91394  75  240 ;
  313  386  2000  21097.64534  55  240 ;
  313  387  4000  2098.61877  75  480 ;
  314  318  4000  11821.108475  65  480 ;
  314  507  4000  4719.993296  55  480 ;
  314  508  4000  497.741697  65  480 ;
  315  313  2000  114164.91394  75  240 ;
  315  316  4000  122.422503  75  480 ;
  316  315  4000  122.422503  75  480 ;
  316  317  4000  124.224105  60  480 ;
  316  508  4000  11274.260216  75  480 ;
  317  153  2000  18835.637741  60  240 ;
  317  316  4000  124.224105  60  480 ;
  318  153  3000  12914.428596  55  360 ;
  318  314  4000  11821.108475  65  480 ;
  318  319  4000  76387.572784  75  480 ;
  319  311  4000  44846.98288  75  480 ;
  319  318  4000  76387.572784  75  480 ;
  319  327  4000  171836.542969  75  480 ;
  320  321  4000  3897.294159  40  480 ;
  320  509  2000  99764.675903  70  240 ;
  320  525  4000  122829.80072  70  480 ;
  321  66  4000  56443.731537  70  480 ;
  321  173  2000  121870.506592  60  240 ;
  321  320  4000  3897.294159  40  480 ;
  321  450  4000  57493.557129  70  480 ;
  322  120  4000  49504.234772  70  480 ;
  322  172  4000  11200.142899  55  480 ;
  322  323  4000  15721.685715  55  480 ;
  323  121  2000  41315.490417  75  240 ;
  323  173  4000  24702.261887  55  480 ;
  323  322  4000  15721.685715  55  480 ;
  324  57  2000  147003.962402  55  240 ;
  324  420  2000  160457.827148  70  240 ;
  324  436  6000  138371.261902  75  720 ;
  324  441  3000  9020.999737  75  360 ;
  325  326  4000  11502.360077  55  480 ;
  325  417  2000  24985.218658  70  240 ;
  325  453  4000  41533.223648  75  480 ;
  326  281  4000  102373.124084  70  480 ;
  326  325  4000  11502.360077  55  480 ;
  326  489  2000  80818.261871  70  240 ;
  327  293  4000  89589.360352  75  480 ;
  327  319  4000  171836.542969  75  480 ;
  327  425  4000  24145.751953  65  480 ;
  328  247  4000  80239.246216  75  480 ;
  328  296  4000  18835.489197  55  480 ;
  328  425  4000  17061.30867  65  480 ;
  329  22  2000  109724.023132  70  240 ;
  329  235  2000  88157.685242  75  240 ;
  329  296  2000  166726.669006  70  240 ;